
Note: No compatibility mode selected!


Circuit: NAND2 seed characterization sample 4021034

Doing analysis at TEMP = 77.494500 and TNOM = 27.000000

Using SPARSE 1.3 as Direct Linear Solver

Initial Transient Solution
--------------------------

Node                                   Voltage
----                                   -------
vdd                                    1.95601
in                                           0
out                                    1.95601
nmid                                 0.0551321
vin#branch                                   0
vdd#branch                        -7.89157e-12

 Reference value :  4.63280e-08
 Reference value :  1.06485e-07
No. of Data Rows : 60047

  Measurements for Transient Analysis

tphl                =  2.04336e-10 targ=  2.26484e-09 trig=  2.06051e-09
tplh                =  7.60239e-11 targ=  2.22575e-08 trig=  2.21815e-08
i_vdd_avg           =  -4.28303e-06 from=  5.00000e-09 to=  1.10001e-07
power_avg_uw        =  8.37766e+00


Total analysis time (seconds) = 0.47772

Total elapsed time (seconds) = 0.548 

Total DRAM available = 16384.000 MB.
DRAM currently available =  260.766 MB.
Maximum ngspice program size =   12.562 MB.
Current ngspice program size =   11.625 MB.

