
Note: No compatibility mode selected!


Circuit: NAND2 seed characterization sample 4021006

Doing analysis at TEMP = -3.443680 and TNOM = 27.000000

Using SPARSE 1.3 as Direct Linear Solver

Initial Transient Solution
--------------------------

Node                                   Voltage
----                                   -------
vdd                                    1.94879
in                                           0
out                                    1.94879
nmid                                 0.0112541
vin#branch                                   0
vdd#branch                        -1.99116e-12

 Reference value :  4.69852e-08
 Reference value :  1.08379e-07
No. of Data Rows : 60044

  Measurements for Transient Analysis

tphl                =  2.41248e-10 targ=  2.36235e-09 trig=  2.12111e-09
tplh                =  1.36600e-10 targ=  2.24999e-08 trig=  2.23633e-08
i_vdd_avg           =  -3.83605e-06 from=  5.00000e-09 to=  1.10001e-07
power_avg_uw        =  7.47565e+00


Total analysis time (seconds) = 0.470747

Total elapsed time (seconds) = 0.540 

Total DRAM available = 16384.000 MB.
DRAM currently available =  248.594 MB.
Maximum ngspice program size =   12.562 MB.
Current ngspice program size =   11.625 MB.

