
Note: No compatibility mode selected!


Circuit: INV seed characterization sample 4021037

Doing analysis at TEMP = 13.466400 and TNOM = 27.000000

Using SPARSE 1.3 as Direct Linear Solver

Initial Transient Solution
--------------------------

Node                                   Voltage
----                                   -------
vdd                                    1.79876
in                                           0
out                                    1.79876
vin#branch                                   0
vdd#branch                          -2.106e-12

 Reference value :  7.28432e-08
No. of Data Rows : 60044

  Measurements for Transient Analysis

tphl                =  1.12587e-10 targ=  2.30564e-09 trig=  2.19306e-09
tplh                =  1.55508e-10 targ=  2.27347e-08 trig=  2.25792e-08
i_vdd_avg           =  -1.58384e-06 from=  5.00000e-09 to=  1.10001e-07
power_avg_uw        =  2.84894e+00


Total analysis time (seconds) = 0.291282

Total elapsed time (seconds) = 0.363 

Total DRAM available = 16384.000 MB.
DRAM currently available =  268.453 MB.
Maximum ngspice program size =   12.797 MB.
Current ngspice program size =   11.953 MB.

