
Note: No compatibility mode selected!


Circuit: NOR2 seed characterization sample 4021039

Doing analysis at TEMP = 25.966100 and TNOM = 27.000000

Using SPARSE 1.3 as Direct Linear Solver

Initial Transient Solution
--------------------------

Node                                   Voltage
----                                   -------
vdd                                    1.81751
in                                           0
out                                    1.81751
pmid                                   1.81751
vin#branch                                   0
vdd#branch                        -4.18785e-12

 Reference value :  4.62910e-08
 Reference value :  1.06435e-07
No. of Data Rows : 60044

  Measurements for Transient Analysis

tphl                =  7.97791e-11 targ=  2.13076e-09 trig=  2.05098e-09
tplh                =  4.07953e-10 targ=  2.25609e-08 trig=  2.21529e-08
i_vdd_avg           =  -1.68938e-06 from=  5.00000e-09 to=  1.10001e-07
power_avg_uw        =  3.07046e+00


Total analysis time (seconds) = 0.47959

Total elapsed time (seconds) = 0.550 

Total DRAM available = 16384.000 MB.
DRAM currently available =  268.453 MB.
Maximum ngspice program size =   13.219 MB.
Current ngspice program size =   13.219 MB.

