
Note: No compatibility mode selected!


Circuit: XOR2 seed characterization sample 4021032

Doing analysis at TEMP = -6.907800 and TNOM = 27.000000

Using SPARSE 1.3 as Direct Linear Solver

Initial Transient Solution
--------------------------

Node                                   Voltage
----                                   -------
vdd                                    1.73321
in                                           0
b                                      1.73321
abar                                   1.73321
bbar                               1.17587e-09
out                                    1.73321
vb#branch                                    0
vin#branch                         1.78667e-12
vdd#branch                        -1.05362e-11

 Reference value :  2.61753e-08
 Reference value :  6.08252e-08
 Reference value :  9.76112e-08
No. of Data Rows : 60044

  Measurements for Transient Analysis

tphl                =  1.60433e-10 targ=  2.23351e-09 trig=  2.07308e-09
tplh                =  2.01319e-10 targ=  2.24206e-08 trig=  2.22192e-08
i_vdd_avg           =  -2.60341e-06 from=  5.00000e-09 to=  1.10001e-07
power_avg_uw        =  4.51226e+00


Total analysis time (seconds) = 0.80963

Total elapsed time (seconds) = 0.882 

Total DRAM available = 16384.000 MB.
DRAM currently available =  254.375 MB.
Maximum ngspice program size =   12.578 MB.
Current ngspice program size =   11.719 MB.

