
Note: No compatibility mode selected!


Circuit: XOR2 seed characterization sample 4021044

Doing analysis at TEMP = 48.289900 and TNOM = 27.000000

Using SPARSE 1.3 as Direct Linear Solver

Initial Transient Solution
--------------------------

Node                                   Voltage
----                                   -------
vdd                                      1.972
in                                           0
b                                        1.972
abar                                     1.972
bbar                               2.55152e-09
out                                      1.972
vb#branch                                    0
vin#branch                         4.95046e-12
vdd#branch                        -1.71161e-11

 Reference value :  2.60315e-08
 Reference value :  6.05722e-08
 Reference value :  9.76162e-08
No. of Data Rows : 60047

  Measurements for Transient Analysis

tphl                =  2.23391e-10 targ=  2.34401e-09 trig=  2.12062e-09
tplh                =  2.99835e-10 targ=  2.26617e-08 trig=  2.23619e-08
i_vdd_avg           =  -2.76760e-06 from=  5.00000e-09 to=  1.10001e-07
power_avg_uw        =  5.45771e+00


Total analysis time (seconds) = 0.804608

Total elapsed time (seconds) = 0.878 

Total DRAM available = 16384.000 MB.
DRAM currently available =  252.266 MB.
Maximum ngspice program size =   13.125 MB.
Current ngspice program size =   13.125 MB.

