
Note: No compatibility mode selected!


Circuit: NOR2 seed characterization sample 4021035

Doing analysis at TEMP = 77.839400 and TNOM = 27.000000

Using SPARSE 1.3 as Direct Linear Solver

Initial Transient Solution
--------------------------

Node                                   Voltage
----                                   -------
vdd                                    1.84833
in                                           0
out                                    1.84833
pmid                                   1.84833
vin#branch                                   0
vdd#branch                        -5.88034e-11

 Reference value :  4.57381e-08
 Reference value :  1.05362e-07
No. of Data Rows : 60044

  Measurements for Transient Analysis

tphl                =  7.55030e-11 targ=  2.09029e-09 trig=  2.01478e-09
tplh                =  2.94608e-10 targ=  2.23390e-08 trig=  2.20444e-08
i_vdd_avg           =  -4.77709e-06 from=  5.00000e-09 to=  1.10000e-07
power_avg_uw        =  8.82964e+00


Total analysis time (seconds) = 0.48274

Total elapsed time (seconds) = 0.555 

Total DRAM available = 16384.000 MB.
DRAM currently available =  260.766 MB.
Maximum ngspice program size =   12.562 MB.
Current ngspice program size =   11.812 MB.

