
Note: No compatibility mode selected!


Circuit: NOR2 seed characterization sample 4021003

Doing analysis at TEMP = 61.144100 and TNOM = 27.000000

Using SPARSE 1.3 as Direct Linear Solver

Initial Transient Solution
--------------------------

Node                                   Voltage
----                                   -------
vdd                                    1.66433
in                                           0
out                                    1.66433
pmid                                   1.66433
vin#branch                                   0
vdd#branch                        -7.86737e-12

 Reference value :  4.38024e-08
 Reference value :  1.02866e-07
No. of Data Rows : 60047

  Measurements for Transient Analysis

tphl                =  2.89533e-10 targ=  2.50925e-09 trig=  2.21972e-09
tplh                =  1.02902e-09 targ=  2.36882e-08 trig=  2.26591e-08
i_vdd_avg           =  -3.64679e-06 from=  5.00000e-09 to=  1.10002e-07
power_avg_uw        =  6.06946e+00


Total analysis time (seconds) = 0.49159

Total elapsed time (seconds) = 0.565 

Total DRAM available = 16384.000 MB.
DRAM currently available =  254.797 MB.
Maximum ngspice program size =   12.562 MB.
Current ngspice program size =   11.906 MB.

