
Note: No compatibility mode selected!


Circuit: NOR2 seed characterization sample 4021027

Doing analysis at TEMP = 18.994500 and TNOM = 27.000000

Using SPARSE 1.3 as Direct Linear Solver

Initial Transient Solution
--------------------------

Node                                   Voltage
----                                   -------
vdd                                     1.8987
in                                           0
out                                     1.8987
pmid                                    1.8987
vin#branch                                   0
vdd#branch                        -5.06009e-12

 Reference value :  4.68447e-08
 Reference value :  1.06856e-07
No. of Data Rows : 60044

  Measurements for Transient Analysis

tphl                =  1.11787e-10 targ=  2.32864e-09 trig=  2.21685e-09
tplh                =  3.23039e-10 targ=  2.29736e-08 trig=  2.26505e-08
i_vdd_avg           =  -4.22803e-06 from=  5.00000e-09 to=  1.10000e-07
power_avg_uw        =  8.02776e+00


Total analysis time (seconds) = 0.479092

Total elapsed time (seconds) = 0.548 

Total DRAM available = 16384.000 MB.
DRAM currently available =  264.922 MB.
Maximum ngspice program size =   12.562 MB.
Current ngspice program size =   11.594 MB.

