
Note: No compatibility mode selected!


Circuit: NOR2 seed characterization sample 4021047

Doing analysis at TEMP = 83.196400 and TNOM = 27.000000

Using SPARSE 1.3 as Direct Linear Solver

Initial Transient Solution
--------------------------

Node                                   Voltage
----                                   -------
vdd                                    1.71546
in                                           0
out                                    1.71546
pmid                                   1.71546
vin#branch                                   0
vdd#branch                        -7.85393e-11

 Reference value :  4.74532e-08
 Reference value :  1.08857e-07
No. of Data Rows : 60044

  Measurements for Transient Analysis

tphl                =  1.04545e-10 targ=  2.27466e-09 trig=  2.17011e-09
tplh                =  2.63486e-10 targ=  2.27738e-08 trig=  2.25103e-08
i_vdd_avg           =  -2.61361e-06 from=  5.00000e-09 to=  1.10001e-07
power_avg_uw        =  4.48354e+00


Total analysis time (seconds) = 0.471434

Total elapsed time (seconds) = 0.540 

Total DRAM available = 16384.000 MB.
DRAM currently available =  258.109 MB.
Maximum ngspice program size =   13.531 MB.
Current ngspice program size =   13.312 MB.

