
Note: No compatibility mode selected!


Circuit: NOR2 seed characterization sample 4021043

Doing analysis at TEMP = -11.016300 and TNOM = 27.000000

Using SPARSE 1.3 as Direct Linear Solver

Initial Transient Solution
--------------------------

Node                                   Voltage
----                                   -------
vdd                                    1.86298
in                                           0
out                                    1.86298
pmid                                   1.86298
vin#branch                                   0
vdd#branch                        -3.78113e-12

 Reference value :  4.58956e-08
 Reference value :  1.05770e-07
No. of Data Rows : 60041

  Measurements for Transient Analysis

tphl                =  1.95170e-10 targ=  2.38749e-09 trig=  2.19232e-09
tplh                =  5.99006e-10 targ=  2.31760e-08 trig=  2.25770e-08
i_vdd_avg           =  -5.97778e-06 from=  5.00000e-09 to=  1.10000e-07
power_avg_uw        =  1.11365e+01


Total analysis time (seconds) = 0.481141

Total elapsed time (seconds) = 0.552 

Total DRAM available = 16384.000 MB.
DRAM currently available =  252.266 MB.
Maximum ngspice program size =   12.562 MB.
Current ngspice program size =   11.844 MB.

