
Note: No compatibility mode selected!


Circuit: NOR2 seed characterization sample 4021015

Doing analysis at TEMP = 88.972800 and TNOM = 27.000000

Using SPARSE 1.3 as Direct Linear Solver

Initial Transient Solution
--------------------------

Node                                   Voltage
----                                   -------
vdd                                     1.7592
in                                           0
out                                     1.7592
pmid                                    1.7592
vin#branch                                   0
vdd#branch                        -1.04731e-10

 Reference value :  4.63527e-08
 Reference value :  1.06900e-07
No. of Data Rows : 60044

  Measurements for Transient Analysis

tphl                =  9.99369e-11 targ=  2.13581e-09 trig=  2.03587e-09
tplh                =  4.14884e-10 targ=  2.25225e-08 trig=  2.21076e-08
i_vdd_avg           =  -5.39965e-06 from=  5.00000e-09 to=  1.10000e-07
power_avg_uw        =  9.49907e+00


Total analysis time (seconds) = 0.478545

Total elapsed time (seconds) = 0.548 

Total DRAM available = 16384.000 MB.
DRAM currently available =  255.297 MB.
Maximum ngspice program size =   12.562 MB.
Current ngspice program size =   11.797 MB.

