
Note: No compatibility mode selected!


Circuit: NAND2 seed characterization sample 4021042

Doing analysis at TEMP = -8.541420 and TNOM = 27.000000

Using SPARSE 1.3 as Direct Linear Solver

Initial Transient Solution
--------------------------

Node                                   Voltage
----                                   -------
vdd                                    1.79226
in                                           0
out                                    1.79226
nmid                                0.00780131
vin#branch                                   0
vdd#branch                        -1.82473e-12

 Reference value :  4.62020e-08
 Reference value :  1.07309e-07
No. of Data Rows : 60047

  Measurements for Transient Analysis

tphl                =  2.94824e-10 targ=  2.36734e-09 trig=  2.07251e-09
tplh                =  1.30005e-10 targ=  2.23475e-08 trig=  2.22175e-08
i_vdd_avg           =  -5.11914e-06 from=  5.00000e-09 to=  1.10001e-07
power_avg_uw        =  9.17483e+00


Total analysis time (seconds) = 0.471907

Total elapsed time (seconds) = 0.545 

Total DRAM available = 16384.000 MB.
DRAM currently available =  252.266 MB.
Maximum ngspice program size =   12.562 MB.
Current ngspice program size =   12.203 MB.

