
Note: No compatibility mode selected!


Circuit: XOR2 seed characterization sample 4021036

Doing analysis at TEMP = 52.560100 and TNOM = 27.000000

Using SPARSE 1.3 as Direct Linear Solver

Initial Transient Solution
--------------------------

Node                                   Voltage
----                                   -------
vdd                                    1.94264
in                                           0
b                                      1.94264
abar                                   1.94264
bbar                               6.74591e-09
out                                    1.94264
vb#branch                                    0
vin#branch                           3.301e-12
vdd#branch                        -1.42581e-11

 Reference value :  2.57616e-08
 Reference value :  5.99313e-08
 Reference value :  9.61353e-08
No. of Data Rows : 60044

  Measurements for Transient Analysis

tphl                =  2.10462e-10 targ=  2.45962e-09 trig=  2.24916e-09
tplh                =  2.63248e-10 targ=  2.30107e-08 trig=  2.27475e-08
i_vdd_avg           =  -6.60269e-07 from=  5.00000e-09 to=  1.10002e-07
power_avg_uw        =  1.28266e+00


Total analysis time (seconds) = 0.817705

Total elapsed time (seconds) = 0.892 

Total DRAM available = 16384.000 MB.
DRAM currently available =  260.766 MB.
Maximum ngspice program size =   12.562 MB.
Current ngspice program size =   11.969 MB.

