
Note: No compatibility mode selected!


Circuit: INV seed characterization sample 4021033

Doing analysis at TEMP = 78.605000 and TNOM = 27.000000

Using SPARSE 1.3 as Direct Linear Solver

Initial Transient Solution
--------------------------

Node                                   Voltage
----                                   -------
vdd                                    1.80997
in                                           0
out                                    1.80997
vin#branch                                   0
vdd#branch                        -2.91084e-11

 Reference value :  7.22392e-08
No. of Data Rows : 60044

  Measurements for Transient Analysis

tphl                =  6.27010e-11 targ=  2.23976e-09 trig=  2.17705e-09
tplh                =  1.10755e-10 targ=  2.26419e-08 trig=  2.25312e-08
i_vdd_avg           =  -6.69443e-07 from=  5.00000e-09 to=  1.10001e-07
power_avg_uw        =  1.21167e+00


Total analysis time (seconds) = 0.298718

Total elapsed time (seconds) = 0.370 

Total DRAM available = 16384.000 MB.
DRAM currently available =  260.766 MB.
Maximum ngspice program size =   12.562 MB.
Current ngspice program size =   12.078 MB.

