
Note: No compatibility mode selected!


Circuit: XOR2 seed characterization sample 4021004

Doing analysis at TEMP = -11.978700 and TNOM = 27.000000

Using SPARSE 1.3 as Direct Linear Solver

Initial Transient Solution
--------------------------

Node                                   Voltage
----                                   -------
vdd                                    1.83696
in                                           0
b                                      1.83696
abar                                   1.83696
bbar                               1.07319e-09
out                                    1.83696
vb#branch                                    0
vin#branch                         1.87777e-12
vdd#branch                        -1.11364e-11

 Reference value :  2.51608e-08
 Reference value :  5.97649e-08
 Reference value :  9.60949e-08
No. of Data Rows : 60044

  Measurements for Transient Analysis

tphl                =  2.22488e-10 targ=  2.32744e-09 trig=  2.10495e-09
tplh                =  2.82629e-10 targ=  2.25975e-08 trig=  2.23149e-08
i_vdd_avg           =  -4.76803e-06 from=  5.00000e-09 to=  1.10001e-07
power_avg_uw        =  8.75867e+00


Total analysis time (seconds) = 0.818432

Total elapsed time (seconds) = 0.894 

Total DRAM available = 16384.000 MB.
DRAM currently available =  254.797 MB.
Maximum ngspice program size =   12.578 MB.
Current ngspice program size =   12.000 MB.

