
Note: No compatibility mode selected!


Circuit: INV seed characterization sample 4021041

Doing analysis at TEMP = 15.357800 and TNOM = 27.000000

Using SPARSE 1.3 as Direct Linear Solver

Initial Transient Solution
--------------------------

Node                                   Voltage
----                                   -------
vdd                                    1.82575
in                                           0
out                                    1.82575
vin#branch                                   0
vdd#branch                        -2.21738e-12

 Reference value :  7.27939e-08
No. of Data Rows : 60047

  Measurements for Transient Analysis

tphl                =  1.09519e-10 targ=  2.18725e-09 trig=  2.07773e-09
tplh                =  1.14791e-10 targ=  2.23480e-08 trig=  2.22332e-08
i_vdd_avg           =  -3.06902e-06 from=  5.00000e-09 to=  1.10002e-07
power_avg_uw        =  5.60327e+00


Total analysis time (seconds) = 0.294322

Total elapsed time (seconds) = 0.365 

Total DRAM available = 16384.000 MB.
DRAM currently available =  252.266 MB.
Maximum ngspice program size =   12.562 MB.
Current ngspice program size =   11.594 MB.

