
Note: No compatibility mode selected!


Circuit: INV seed characterization sample 4021013

Doing analysis at TEMP = 83.010900 and TNOM = 27.000000

Using SPARSE 1.3 as Direct Linear Solver

Initial Transient Solution
--------------------------

Node                                   Voltage
----                                   -------
vdd                                    1.74732
in                                           0
out                                    1.74732
vin#branch                                   0
vdd#branch                        -3.25219e-11

 Reference value :  7.46251e-08
No. of Data Rows : 60044

  Measurements for Transient Analysis

tphl                =  2.64165e-10 targ=  2.44719e-09 trig=  2.18303e-09
tplh                =  3.06364e-10 targ=  2.28555e-08 trig=  2.25491e-08
i_vdd_avg           =  -5.12706e-06 from=  5.00000e-09 to=  1.10001e-07
power_avg_uw        =  8.95861e+00


Total analysis time (seconds) = 0.290009

Total elapsed time (seconds) = 0.358 

Total DRAM available = 16384.000 MB.
DRAM currently available =  255.297 MB.
Maximum ngspice program size =   12.562 MB.
Current ngspice program size =   12.312 MB.

