
Note: No compatibility mode selected!


Circuit: XOR2 seed characterization sample 4021024

Doing analysis at TEMP = 93.167300 and TNOM = 27.000000

Using SPARSE 1.3 as Direct Linear Solver

Initial Transient Solution
--------------------------

Node                                   Voltage
----                                   -------
vdd                                    1.93289
in                                           0
b                                      1.93289
abar                                   1.93289
bbar                               6.63608e-09
out                                    1.93289
vb#branch                                    0
vin#branch                         1.25043e-10
vdd#branch                        -2.31411e-10

 Reference value :  2.61930e-08
 Reference value :  6.10909e-08
 Reference value :  9.82470e-08
No. of Data Rows : 60059

  Measurements for Transient Analysis

tphl                =  2.39516e-10 targ=  2.24703e-09 trig=  2.00752e-09
tplh                =  2.16378e-10 targ=  2.22389e-08 trig=  2.20226e-08
i_vdd_avg           =  -8.09090e-06 from=  5.00000e-09 to=  1.10001e-07
power_avg_uw        =  1.56388e+01


Total analysis time (seconds) = 0.801351

Total elapsed time (seconds) = 0.874 

Total DRAM available = 16384.000 MB.
DRAM currently available =  262.422 MB.
Maximum ngspice program size =   12.578 MB.
Current ngspice program size =   11.656 MB.

