
Note: No compatibility mode selected!


Circuit: NAND2 seed characterization sample 4021026

Doing analysis at TEMP = 38.616300 and TNOM = 27.000000

Using SPARSE 1.3 as Direct Linear Solver

Initial Transient Solution
--------------------------

Node                                   Voltage
----                                   -------
vdd                                    1.88098
in                                           0
out                                    1.88098
nmid                                 0.0434888
vin#branch                                   0
vdd#branch                        -2.19914e-12

 Reference value :  4.75402e-08
 Reference value :  1.09054e-07
No. of Data Rows : 60044

  Measurements for Transient Analysis

tphl                =  1.89814e-10 targ=  2.19871e-09 trig=  2.00890e-09
tplh                =  5.41078e-11 targ=  2.20808e-08 trig=  2.20267e-08
i_vdd_avg           =  -2.64094e-06 from=  5.00000e-09 to=  1.10000e-07
power_avg_uw        =  4.96755e+00


Total analysis time (seconds) = 0.468627

Total elapsed time (seconds) = 0.538 

Total DRAM available = 16384.000 MB.
DRAM currently available =  264.922 MB.
Maximum ngspice program size =   12.562 MB.
Current ngspice program size =   11.625 MB.

