
Note: No compatibility mode selected!


Circuit: NAND2 seed characterization sample 4021002

Doing analysis at TEMP = 86.899500 and TNOM = 27.000000

Using SPARSE 1.3 as Direct Linear Solver

Initial Transient Solution
--------------------------

Node                                   Voltage
----                                   -------
vdd                                    1.62885
in                                           0
out                                    1.62885
nmid                                 0.0494799
vin#branch                                   0
vdd#branch                        -5.89651e-12

 Reference value :  4.48273e-08
 Reference value :  1.05118e-07
No. of Data Rows : 60044

  Measurements for Transient Analysis

tphl                =  5.16795e-10 targ=  2.62496e-09 trig=  2.10817e-09
tplh                =  2.59233e-10 targ=  2.25837e-08 trig=  2.23245e-08
i_vdd_avg           =  -3.62290e-06 from=  5.00000e-09 to=  1.10002e-07
power_avg_uw        =  5.90116e+00


Total analysis time (seconds) = 0.480361

Total elapsed time (seconds) = 0.554 

Total DRAM available = 16384.000 MB.
DRAM currently available =  254.797 MB.
Maximum ngspice program size =   12.562 MB.
Current ngspice program size =   11.781 MB.

