
Note: No compatibility mode selected!


Circuit: INV seed characterization sample 4021017

Doing analysis at TEMP = 32.347100 and TNOM = 27.000000

Using SPARSE 1.3 as Direct Linear Solver

Initial Transient Solution
--------------------------

Node                                   Voltage
----                                   -------
vdd                                    1.92949
in                                           0
out                                    1.92949
vin#branch                                   0
vdd#branch                        -3.04048e-12

 Reference value :  7.34295e-08
No. of Data Rows : 60044

  Measurements for Transient Analysis

tphl                =  1.56559e-10 targ=  2.23267e-09 trig=  2.07611e-09
tplh                =  1.82232e-10 targ=  2.24106e-08 trig=  2.22283e-08
i_vdd_avg           =  -4.03542e-06 from=  5.00000e-09 to=  1.10001e-07
power_avg_uw        =  7.78631e+00


Total analysis time (seconds) = 0.28865

Total elapsed time (seconds) = 0.359 

Total DRAM available = 16384.000 MB.
DRAM currently available =  246.719 MB.
Maximum ngspice program size =   12.562 MB.
Current ngspice program size =   11.594 MB.

