
Note: No compatibility mode selected!


Circuit: NAND2 seed characterization sample 4021038

Doing analysis at TEMP = 53.326900 and TNOM = 27.000000

Using SPARSE 1.3 as Direct Linear Solver

Initial Transient Solution
--------------------------

Node                                   Voltage
----                                   -------
vdd                                    1.64928
in                                           0
out                                    1.64928
nmid                                 0.0466523
vin#branch                                   0
vdd#branch                        -2.93474e-12

 Reference value :  4.62603e-08
 Reference value :  1.07220e-07
No. of Data Rows : 60047

  Measurements for Transient Analysis

tphl                =  2.83696e-10 targ=  2.41737e-09 trig=  2.13367e-09
tplh                =  1.56077e-10 targ=  2.25571e-08 trig=  2.24010e-08
i_vdd_avg           =  -3.91059e-06 from=  5.00000e-09 to=  1.10002e-07
power_avg_uw        =  6.44966e+00


Total analysis time (seconds) = 0.473367

Total elapsed time (seconds) = 0.545 

Total DRAM available = 16384.000 MB.
DRAM currently available =  268.453 MB.
Maximum ngspice program size =   12.562 MB.
Current ngspice program size =   11.875 MB.

