
Note: No compatibility mode selected!


Circuit: NAND2 seed characterization sample 4011010

Doing analysis at TEMP = 97.812300 and TNOM = 27.000000

Using SPARSE 1.3 as Direct Linear Solver

Initial Transient Solution
--------------------------

Node                                   Voltage
----                                   -------
vdd                                    1.95786
in                                           0
out                                    1.95786
nmid                                  0.051439
vin#branch                                   0
vdd#branch                        -4.36395e-12

 Reference value :  4.81146e-08
 Reference value :  1.10500e-07
No. of Data Rows : 60044

  Measurements for Transient Analysis

tphl                =  2.96754e-10 targ=  2.37557e-09 trig=  2.07882e-09
tplh                =  1.12490e-10 targ=  2.23489e-08 trig=  2.22365e-08
i_vdd_avg           =  -5.06419e-06 from=  5.00000e-09 to=  1.10000e-07
power_avg_uw        =  9.91498e+00


Total analysis time (seconds) = 0.463427

Total elapsed time (seconds) = 0.532 

Total DRAM available = 16384.000 MB.
DRAM currently available =  218.719 MB.
Maximum ngspice program size =   12.562 MB.
Current ngspice program size =   11.844 MB.

