
Note: No compatibility mode selected!


Circuit: NAND2 seed characterization sample 4011002

Doing analysis at TEMP = 69.976900 and TNOM = 27.000000

Using SPARSE 1.3 as Direct Linear Solver

Initial Transient Solution
--------------------------

Node                                   Voltage
----                                   -------
vdd                                    1.93486
in                                           0
out                                    1.93486
nmid                                 0.0446183
vin#branch                                   0
vdd#branch                        -2.38489e-12

 Reference value :  4.67140e-08
 Reference value :  1.08257e-07
No. of Data Rows : 60047

  Measurements for Transient Analysis

tphl                =  3.71048e-10 targ=  2.56755e-09 trig=  2.19650e-09
tplh                =  1.89237e-10 targ=  2.27787e-08 trig=  2.25895e-08
i_vdd_avg           =  -5.35631e-06 from=  5.00000e-09 to=  1.10001e-07
power_avg_uw        =  1.03637e+01


Total analysis time (seconds) = 0.469663

Total elapsed time (seconds) = 0.540 

Total DRAM available = 16384.000 MB.
DRAM currently available =  183.828 MB.
Maximum ngspice program size =   12.562 MB.
Current ngspice program size =   11.625 MB.

