
Note: No compatibility mode selected!


Circuit: INV seed characterization sample 4011025

Doing analysis at TEMP = 62.188400 and TNOM = 27.000000

Using SPARSE 1.3 as Direct Linear Solver

Initial Transient Solution
--------------------------

Node                                   Voltage
----                                   -------
vdd                                    1.79778
in                                           0
out                                    1.79778
vin#branch                                   0
vdd#branch                        -2.37418e-12

 Reference value :  7.28135e-08
No. of Data Rows : 60047

  Measurements for Transient Analysis

tphl                =  1.72032e-10 targ=  2.40764e-09 trig=  2.23561e-09
tplh                =  2.10820e-10 targ=  2.29177e-08 trig=  2.27068e-08
i_vdd_avg           =  -1.17881e-06 from=  5.00000e-09 to=  1.10001e-07
power_avg_uw        =  2.11924e+00


Total analysis time (seconds) = 0.293314

Total elapsed time (seconds) = 0.363 

Total DRAM available = 16384.000 MB.
DRAM currently available =  175.500 MB.
Maximum ngspice program size =   12.562 MB.
Current ngspice program size =   11.781 MB.

