
Note: No compatibility mode selected!


Circuit: NOR2 seed characterization sample 4011023

Doing analysis at TEMP = 2.740210 and TNOM = 27.000000

Using SPARSE 1.3 as Direct Linear Solver

Initial Transient Solution
--------------------------

Node                                   Voltage
----                                   -------
vdd                                    1.75367
in                                           0
out                                    1.75367
pmid                                   1.75367
vin#branch                                   0
vdd#branch                        -3.53543e-12

 Reference value :  4.56517e-08
 Reference value :  1.05596e-07
No. of Data Rows : 60041

  Measurements for Transient Analysis

tphl                =  2.24063e-10 targ=  2.45740e-09 trig=  2.23334e-09
tplh                =  5.75153e-10 targ=  2.32752e-08 trig=  2.27000e-08
i_vdd_avg           =  -4.52869e-06 from=  5.00000e-09 to=  1.10000e-07
power_avg_uw        =  7.94183e+00


Total analysis time (seconds) = 0.47954

Total elapsed time (seconds) = 0.552 

Total DRAM available = 16384.000 MB.
DRAM currently available =  145.484 MB.
Maximum ngspice program size =   12.562 MB.
Current ngspice program size =   12.297 MB.

