
Note: No compatibility mode selected!


Circuit: NOR2 seed characterization sample 4011015

Doing analysis at TEMP = 28.446000 and TNOM = 27.000000

Using SPARSE 1.3 as Direct Linear Solver

Initial Transient Solution
--------------------------

Node                                   Voltage
----                                   -------
vdd                                    1.63377
in                                           0
out                                    1.63377
pmid                                   1.63377
vin#branch                                   0
vdd#branch                        -3.40291e-12

 Reference value :  4.74335e-08
 Reference value :  1.08407e-07
No. of Data Rows : 60068

  Measurements for Transient Analysis

tphl                =  9.41614e-11 targ=  2.09951e-09 trig=  2.00535e-09
tplh                =  4.46536e-10 targ=  2.24626e-08 trig=  2.20161e-08
i_vdd_avg           =  -4.32299e-06 from=  5.00000e-09 to=  1.10001e-07
power_avg_uw        =  7.06278e+00


Total analysis time (seconds) = 0.474202

Total elapsed time (seconds) = 0.541 

Total DRAM available = 16384.000 MB.
DRAM currently available =  213.953 MB.
Maximum ngspice program size =   13.250 MB.
Current ngspice program size =   12.094 MB.

