
Note: No compatibility mode selected!


Circuit: XOR2 seed characterization sample 4011024

Doing analysis at TEMP = 42.356200 and TNOM = 27.000000

Using SPARSE 1.3 as Direct Linear Solver

Initial Transient Solution
--------------------------

Node                                   Voltage
----                                   -------
vdd                                    1.78346
in                                           0
b                                      1.78346
abar                                   1.78346
bbar                               1.78782e-09
out                                    1.78346
vb#branch                                    0
vin#branch                         1.99267e-12
vdd#branch                        -1.11139e-11

 Reference value :  2.61571e-08
 Reference value :  6.09450e-08
 Reference value :  9.80050e-08
No. of Data Rows : 60044

  Measurements for Transient Analysis

tphl                =  2.61958e-10 targ=  2.41198e-09 trig=  2.15002e-09
tplh                =  3.30386e-10 targ=  2.27805e-08 trig=  2.24501e-08
i_vdd_avg           =  -2.66869e-06 from=  5.00000e-09 to=  1.10001e-07
power_avg_uw        =  4.75950e+00


Total analysis time (seconds) = 0.804427

Total elapsed time (seconds) = 0.879 

Total DRAM available = 16384.000 MB.
DRAM currently available =  145.484 MB.
Maximum ngspice program size =   12.562 MB.
Current ngspice program size =   12.000 MB.

