
Note: No compatibility mode selected!


Circuit: INV seed characterization sample 4011001

Doing analysis at TEMP = 75.507300 and TNOM = 27.000000

Using SPARSE 1.3 as Direct Linear Solver

Initial Transient Solution
--------------------------

Node                                   Voltage
----                                   -------
vdd                                    1.91234
in                                           0
out                                    1.91234
vin#branch                                   0
vdd#branch                        -4.50552e-12

 Reference value :  7.14655e-08
No. of Data Rows : 60044

  Measurements for Transient Analysis

tphl                =  1.52537e-10 targ=  2.19267e-09 trig=  2.04013e-09
tplh                =  1.42739e-10 targ=  2.22631e-08 trig=  2.21204e-08
i_vdd_avg           =  -4.30211e-06 from=  5.00000e-09 to=  1.10002e-07
power_avg_uw        =  8.22711e+00


Total analysis time (seconds) = 0.302274

Total elapsed time (seconds) = 0.372 

Total DRAM available = 16384.000 MB.
DRAM currently available =  183.828 MB.
Maximum ngspice program size =   12.562 MB.
Current ngspice program size =   11.656 MB.

