
Note: No compatibility mode selected!


Circuit: NAND2 seed characterization sample 4011038

Doing analysis at TEMP = -19.568000 and TNOM = 27.000000

Using SPARSE 1.3 as Direct Linear Solver

Initial Transient Solution
--------------------------

Node                                   Voltage
----                                   -------
vdd                                    1.80765
in                                           0
out                                    1.80765
nmid                               3.67098e-05
vin#branch                                   0
vdd#branch                        -1.81776e-12

 Reference value :  4.50825e-08
 Reference value :  1.05566e-07
No. of Data Rows : 60044

  Measurements for Transient Analysis

tphl                =  9.16136e-10 targ=  2.93390e-09 trig=  2.01777e-09
tplh                =  3.28311e-10 targ=  2.23816e-08 trig=  2.20533e-08
i_vdd_avg           =  -5.42312e-06 from=  5.00000e-09 to=  1.10000e-07
power_avg_uw        =  9.80310e+00


Total analysis time (seconds) = 0.478472

Total elapsed time (seconds) = 0.551 

Total DRAM available = 16384.000 MB.
DRAM currently available =  197.797 MB.
Maximum ngspice program size =   12.562 MB.
Current ngspice program size =   11.594 MB.

