
Note: No compatibility mode selected!


Circuit: NAND2 seed characterization sample 4011034

Doing analysis at TEMP = 33.281200 and TNOM = 27.000000

Using SPARSE 1.3 as Direct Linear Solver

Initial Transient Solution
--------------------------

Node                                   Voltage
----                                   -------
vdd                                    1.64396
in                                           0
out                                    1.64396
nmid                                 0.0175846
vin#branch                                   0
vdd#branch                        -1.71038e-12

 Reference value :  4.66845e-08
 Reference value :  1.07544e-07
No. of Data Rows : 60047

  Measurements for Transient Analysis

tphl                =  4.17618e-10 targ=  2.53536e-09 trig=  2.11775e-09
tplh                =  2.24672e-10 targ=  2.25779e-08 trig=  2.23532e-08
i_vdd_avg           =  -5.29816e-06 from=  5.00000e-09 to=  1.10002e-07
power_avg_uw        =  8.70996e+00


Total analysis time (seconds) = 0.473233

Total elapsed time (seconds) = 0.545 

Total DRAM available = 16384.000 MB.
DRAM currently available =  180.922 MB.
Maximum ngspice program size =   12.562 MB.
Current ngspice program size =   11.656 MB.

