
Note: No compatibility mode selected!


Circuit: INV seed characterization sample 4011037

Doing analysis at TEMP = 21.410400 and TNOM = 27.000000

Using SPARSE 1.3 as Direct Linear Solver

Initial Transient Solution
--------------------------

Node                                   Voltage
----                                   -------
vdd                                    1.78333
in                                           0
out                                    1.78333
vin#branch                                   0
vdd#branch                        -1.83689e-12

 Reference value :  7.11662e-08
No. of Data Rows : 60044

  Measurements for Transient Analysis

tphl                =  1.09235e-10 targ=  2.20305e-09 trig=  2.09381e-09
tplh                =  1.60093e-10 targ=  2.24415e-08 trig=  2.22814e-08
i_vdd_avg           =  -2.09890e-06 from=  5.00000e-09 to=  1.10000e-07
power_avg_uw        =  3.74304e+00


Total analysis time (seconds) = 0.299447

Total elapsed time (seconds) = 0.372 

Total DRAM available = 16384.000 MB.
DRAM currently available =  197.797 MB.
Maximum ngspice program size =   12.562 MB.
Current ngspice program size =   11.906 MB.

