
Note: No compatibility mode selected!


Circuit: XOR2 seed characterization sample 4011004

Doing analysis at TEMP = 16.215500 and TNOM = 27.000000

Using SPARSE 1.3 as Direct Linear Solver

Initial Transient Solution
--------------------------

Node                                   Voltage
----                                   -------
vdd                                    1.88331
in                                           0
b                                      1.88331
abar                                   1.88331
bbar                               2.63384e-09
out                                    1.88331
vb#branch                                    0
vin#branch                         1.90596e-12
vdd#branch                         -1.1382e-11

 Reference value :  2.65630e-08
 Reference value :  6.18500e-08
 Reference value :  9.95940e-08
No. of Data Rows : 60041

  Measurements for Transient Analysis

tphl                =  3.68471e-10 targ=  2.46797e-09 trig=  2.09950e-09
tplh                =  4.41641e-10 targ=  2.27401e-08 trig=  2.22985e-08
i_vdd_avg           =  -3.61590e-06 from=  5.00000e-09 to=  1.10001e-07
power_avg_uw        =  6.80986e+00


Total analysis time (seconds) = 0.792233

Total elapsed time (seconds) = 0.865 

Total DRAM available = 16384.000 MB.
DRAM currently available =  183.828 MB.
Maximum ngspice program size =   12.625 MB.
Current ngspice program size =   11.969 MB.

