
Note: No compatibility mode selected!


Circuit: NAND2 seed characterization sample 4011042

Doing analysis at TEMP = -14.754900 and TNOM = 27.000000

Using SPARSE 1.3 as Direct Linear Solver

Initial Transient Solution
--------------------------

Node                                   Voltage
----                                   -------
vdd                                    1.90086
in                                           0
out                                    1.90086
nmid                               0.000253828
vin#branch                                   0
vdd#branch                        -1.91159e-12

 Reference value :  4.59536e-08
 Reference value :  1.06444e-07
No. of Data Rows : 60041

  Measurements for Transient Analysis

tphl                =  2.56958e-10 targ=  2.40024e-09 trig=  2.14328e-09
tplh                =  1.40446e-10 targ=  2.25703e-08 trig=  2.24298e-08
i_vdd_avg           =  -3.13949e-06 from=  5.00000e-09 to=  1.10000e-07
power_avg_uw        =  5.96773e+00


Total analysis time (seconds) = 0.476604

Total elapsed time (seconds) = 0.549 

Total DRAM available = 16384.000 MB.
DRAM currently available =  174.641 MB.
Maximum ngspice program size =   12.625 MB.
Current ngspice program size =   11.859 MB.

