
Note: No compatibility mode selected!


Circuit: NOR2 seed characterization sample 4011031

Doing analysis at TEMP = 33.654800 and TNOM = 27.000000

Using SPARSE 1.3 as Direct Linear Solver

Initial Transient Solution
--------------------------

Node                                   Voltage
----                                   -------
vdd                                    1.71408
in                                           0
out                                    1.71408
pmid                                   1.71408
vin#branch                                   0
vdd#branch                        -3.55548e-12

 Reference value :  4.57336e-08
 Reference value :  1.05470e-07
No. of Data Rows : 60041

  Measurements for Transient Analysis

tphl                =  1.47369e-10 targ=  2.21765e-09 trig=  2.07028e-09
tplh                =  5.13700e-10 targ=  2.27245e-08 trig=  2.22108e-08
i_vdd_avg           =  -3.48103e-06 from=  5.00000e-09 to=  1.10000e-07
power_avg_uw        =  5.96677e+00


Total analysis time (seconds) = 0.48186

Total elapsed time (seconds) = 0.553 

Total DRAM available = 16384.000 MB.
DRAM currently available =  164.969 MB.
Maximum ngspice program size =   12.562 MB.
Current ngspice program size =   11.656 MB.

