
Note: No compatibility mode selected!


Circuit: XOR2 seed characterization sample 4011012

Doing analysis at TEMP = 62.598600 and TNOM = 27.000000

Using SPARSE 1.3 as Direct Linear Solver

Initial Transient Solution
--------------------------

Node                                   Voltage
----                                   -------
vdd                                    1.81701
in                                           0
b                                      1.81701
abar                                   1.81701
bbar                               4.37283e-09
out                                    1.81701
vb#branch                                    0
vin#branch                         2.18806e-12
vdd#branch                        -1.15919e-11

 Reference value :  2.72126e-08
 Reference value :  6.28806e-08
 Reference value :  1.00637e-07
No. of Data Rows : 60044

  Measurements for Transient Analysis

tphl                =  4.04168e-10 targ=  2.53006e-09 trig=  2.12589e-09
tplh                =  5.19804e-10 targ=  2.28975e-08 trig=  2.23777e-08
i_vdd_avg           =  -2.33093e-06 from=  5.00000e-09 to=  1.10001e-07
power_avg_uw        =  4.23531e+00


Total analysis time (seconds) = 0.787168

Total elapsed time (seconds) = 0.858 

Total DRAM available = 16384.000 MB.
DRAM currently available =  218.719 MB.
Maximum ngspice program size =   12.578 MB.
Current ngspice program size =   11.734 MB.

