
Note: No compatibility mode selected!


Circuit: XOR2 seed characterization sample 4011020

Doing analysis at TEMP = 39.127000 and TNOM = 27.000000

Using SPARSE 1.3 as Direct Linear Solver

Initial Transient Solution
--------------------------

Node                                   Voltage
----                                   -------
vdd                                    1.72514
in                                           0
b                                      1.72514
abar                                   1.72514
bbar                               3.46469e-09
out                                    1.72514
vb#branch                                    0
vin#branch                         1.80357e-12
vdd#branch                        -1.05305e-11

 Reference value :  2.58293e-08
 Reference value :  6.04741e-08
 Reference value :  9.68821e-08
No. of Data Rows : 60047

  Measurements for Transient Analysis

tphl                =  8.72799e-10 targ=  3.04637e-09 trig=  2.17357e-09
tplh                =  1.14193e-09 targ=  2.36626e-08 trig=  2.25207e-08
i_vdd_avg           =  -5.78600e-06 from=  5.00000e-09 to=  1.10001e-07
power_avg_uw        =  9.98166e+00


Total analysis time (seconds) = 0.81986

Total elapsed time (seconds) = 0.889 

Total DRAM available = 16384.000 MB.
DRAM currently available =  154.531 MB.
Maximum ngspice program size =   12.578 MB.
Current ngspice program size =   12.031 MB.

