
Note: No compatibility mode selected!


Circuit: NOR2 seed characterization sample 4204043

Doing analysis at TEMP = 77.630000 and TNOM = 27.000000

Using SPARSE 1.3 as Direct Linear Solver

Initial Transient Solution
--------------------------

Node                                   Voltage
----                                   -------
vdd                                    1.70879
in                                           0
out                                    1.70879
pmid                                   1.70879
vin#branch                                   0
vdd#branch                         -6.8454e-10

 Reference value :  4.10394e-08
 Reference value :  1.02445e-07
No. of Data Rows : 60044

  Measurements for Transient Analysis

tphl                =  1.05239e-10 targ=  2.20833e-09 trig=  2.10309e-09
tplh                =  4.01407e-10 targ=  2.27107e-08 trig=  2.23093e-08
i_vdd_avg           =  -5.50919e-06 from=  5.00000e-09 to=  1.10001e-07
power_avg_uw        =  9.41405e+00


Total analysis time (seconds) = 0.475767

Total elapsed time (seconds) = 0.565 

Total DRAM available = 16384.000 MB.
DRAM currently available =  235.125 MB.
Maximum ngspice program size =   13.312 MB.
Current ngspice program size =   13.312 MB.

