
Note: No compatibility mode selected!


Circuit: NOR2 seed characterization sample 4204035

Doing analysis at TEMP = 83.343400 and TNOM = 27.000000

Using SPARSE 1.3 as Direct Linear Solver

Initial Transient Solution
--------------------------

Node                                   Voltage
----                                   -------
vdd                                    1.67876
in                                           0
out                                    1.67876
pmid                                   1.67876
vin#branch                                   0
vdd#branch                        -2.22366e-10

 Reference value :  4.67031e-08
 Reference value :  1.07209e-07
No. of Data Rows : 60044

  Measurements for Transient Analysis

tphl                =  1.25978e-10 targ=  2.18101e-09 trig=  2.05503e-09
tplh                =  4.49707e-10 targ=  2.26148e-08 trig=  2.21651e-08
i_vdd_avg           =  -2.71560e-06 from=  5.00000e-09 to=  1.10001e-07
power_avg_uw        =  4.55884e+00


Total analysis time (seconds) = 0.478569

Total elapsed time (seconds) = 0.547 

Total DRAM available = 16384.000 MB.
DRAM currently available =  255.344 MB.
Maximum ngspice program size =   12.562 MB.
Current ngspice program size =   11.594 MB.

