
Note: No compatibility mode selected!


Circuit: NOR2 seed characterization sample 4204007

Doing analysis at TEMP = -13.311600 and TNOM = 27.000000

Using SPARSE 1.3 as Direct Linear Solver

Initial Transient Solution
--------------------------

Node                                   Voltage
----                                   -------
vdd                                    1.80872
in                                           0
out                                    1.80872
pmid                                   1.80872
vin#branch                                   0
vdd#branch                        -4.30433e-12

 Reference value :  3.86221e-08
 Reference value :  9.85695e-08
No. of Data Rows : 60041

  Measurements for Transient Analysis

tphl                =  8.81522e-11 targ=  2.33542e-09 trig=  2.24727e-09
tplh                =  3.26399e-10 targ=  2.30682e-08 trig=  2.27418e-08
i_vdd_avg           =  -2.08557e-06 from=  5.00000e-09 to=  1.10000e-07
power_avg_uw        =  3.77222e+00


Total analysis time (seconds) = 0.484683

Total elapsed time (seconds) = 0.582 

Total DRAM available = 16384.000 MB.
DRAM currently available =  240.312 MB.
Maximum ngspice program size =   13.203 MB.
Current ngspice program size =   11.828 MB.

