
Note: No compatibility mode selected!


Circuit: NAND2 seed characterization sample 4204006

Doing analysis at TEMP = -2.606460 and TNOM = 27.000000

Using SPARSE 1.3 as Direct Linear Solver

Initial Transient Solution
--------------------------

Node                                   Voltage
----                                   -------
vdd                                    1.72507
in                                           0
out                                    1.72507
nmid                                 0.0433997
vin#branch                                   0
vdd#branch                        -2.04496e-12

 Reference value :  4.57231e-08
 Reference value :  1.05995e-07
No. of Data Rows : 60044

  Measurements for Transient Analysis

tphl                =  1.16047e-10 targ=  2.26212e-09 trig=  2.14607e-09
tplh                =  7.20909e-11 targ=  2.25103e-08 trig=  2.24382e-08
i_vdd_avg           =  -1.61577e-06 from=  5.00000e-09 to=  1.10001e-07
power_avg_uw        =  2.78732e+00


Total analysis time (seconds) = 0.478225

Total elapsed time (seconds) = 0.551 

Total DRAM available = 16384.000 MB.
DRAM currently available =  238.562 MB.
Maximum ngspice program size =   12.562 MB.
Current ngspice program size =   11.734 MB.

