
Note: No compatibility mode selected!


Circuit: NOR2 seed characterization sample 4204027

Doing analysis at TEMP = 51.764600 and TNOM = 27.000000

Using SPARSE 1.3 as Direct Linear Solver

Initial Transient Solution
--------------------------

Node                                   Voltage
----                                   -------
vdd                                    1.94712
in                                           0
out                                    1.94712
pmid                                   1.94712
vin#branch                                   0
vdd#branch                        -2.13346e-10

 Reference value :  4.60146e-08
 Reference value :  1.06140e-07
No. of Data Rows : 60044

  Measurements for Transient Analysis

tphl                =  7.45783e-11 targ=  2.26736e-09 trig=  2.19278e-09
tplh                =  2.19468e-10 targ=  2.27978e-08 trig=  2.25784e-08
i_vdd_avg           =  -4.17514e-06 from=  5.00000e-09 to=  1.10000e-07
power_avg_uw        =  8.12950e+00


Total analysis time (seconds) = 0.480755

Total elapsed time (seconds) = 0.551 

Total DRAM available = 16384.000 MB.
DRAM currently available =  258.109 MB.
Maximum ngspice program size =   12.562 MB.
Current ngspice program size =   11.938 MB.

