
Note: No compatibility mode selected!


Circuit: XOR2 seed characterization sample 4204032

Doing analysis at TEMP = 4.729520 and TNOM = 27.000000

Using SPARSE 1.3 as Direct Linear Solver

Initial Transient Solution
--------------------------

Node                                   Voltage
----                                   -------
vdd                                    1.80507
in                                           0
b                                      1.80507
abar                                   1.80507
bbar                               1.65941e-09
out                                    1.80507
vb#branch                                    0
vin#branch                         3.71299e-12
vdd#branch                        -1.42277e-11

 Reference value :  2.69190e-08
 Reference value :  6.21330e-08
 Reference value :  9.94519e-08
No. of Data Rows : 60047

  Measurements for Transient Analysis

tphl                =  8.28542e-11 targ=  2.09054e-09 trig=  2.00768e-09
tplh                =  1.17553e-10 targ=  2.21406e-08 trig=  2.20230e-08
i_vdd_avg           =  -1.53397e-06 from=  5.00000e-09 to=  1.10001e-07
power_avg_uw        =  2.76892e+00


Total analysis time (seconds) = 0.796737

Total elapsed time (seconds) = 0.866 

Total DRAM available = 16384.000 MB.
DRAM currently available =  250.875 MB.
Maximum ngspice program size =   12.578 MB.
Current ngspice program size =   11.969 MB.

