
Note: No compatibility mode selected!


Circuit: NAND2 seed characterization sample 4204042

Doing analysis at TEMP = 96.449900 and TNOM = 27.000000

Using SPARSE 1.3 as Direct Linear Solver

Initial Transient Solution
--------------------------

Node                                   Voltage
----                                   -------
vdd                                    1.83019
in                                           0
out                                    1.83019
nmid                                 0.0586066
vin#branch                                   0
vdd#branch                        -1.16679e-10

 Reference value :  4.71729e-08
 Reference value :  1.08971e-07
No. of Data Rows : 60044

  Measurements for Transient Analysis

tphl                =  1.75232e-10 targ=  2.24717e-09 trig=  2.07194e-09
tplh                =  7.15798e-11 targ=  2.22874e-08 trig=  2.22158e-08
i_vdd_avg           =  -2.73476e-06 from=  5.00000e-09 to=  1.10001e-07
power_avg_uw        =  5.00513e+00


Total analysis time (seconds) = 0.467443

Total elapsed time (seconds) = 0.539 

Total DRAM available = 16384.000 MB.
DRAM currently available =  241.547 MB.
Maximum ngspice program size =   12.797 MB.
Current ngspice program size =   11.891 MB.

