
Note: No compatibility mode selected!


Circuit: NAND2 seed characterization sample 4204030

Doing analysis at TEMP = 82.394100 and TNOM = 27.000000

Using SPARSE 1.3 as Direct Linear Solver

Initial Transient Solution
--------------------------

Node                                   Voltage
----                                   -------
vdd                                    1.97734
in                                           0
out                                    1.97734
nmid                                 0.0611619
vin#branch                                   0
vdd#branch                         -4.8608e-11

 Reference value :  4.72541e-08
 Reference value :  1.08923e-07
No. of Data Rows : 60047

  Measurements for Transient Analysis

tphl                =  4.00714e-10 targ=  2.59224e-09 trig=  2.19153e-09
tplh                =  2.03137e-10 targ=  2.27777e-08 trig=  2.25746e-08
i_vdd_avg           =  -6.43620e-06 from=  5.00000e-09 to=  1.10001e-07
power_avg_uw        =  1.27266e+01


Total analysis time (seconds) = 0.469099

Total elapsed time (seconds) = 0.538 

Total DRAM available = 16384.000 MB.
DRAM currently available =  253.734 MB.
Maximum ngspice program size =   12.562 MB.
Current ngspice program size =   12.188 MB.

