
Note: No compatibility mode selected!


Circuit: INV seed characterization sample 4204017

Doing analysis at TEMP = 61.918500 and TNOM = 27.000000

Using SPARSE 1.3 as Direct Linear Solver

Initial Transient Solution
--------------------------

Node                                   Voltage
----                                   -------
vdd                                    1.91487
in                                           0
out                                    1.91487
vin#branch                                   0
vdd#branch                         -2.0776e-10

 Reference value :  6.75647e-08
No. of Data Rows : 60044

  Measurements for Transient Analysis

tphl                =  8.78542e-11 targ=  2.17877e-09 trig=  2.09092e-09
tplh                =  1.14593e-10 targ=  2.23873e-08 trig=  2.22728e-08
i_vdd_avg           =  -3.40028e-06 from=  5.00000e-09 to=  1.10001e-07
power_avg_uw        =  6.51110e+00


Total analysis time (seconds) = 0.289389

Total elapsed time (seconds) = 0.374 

Total DRAM available = 16384.000 MB.
DRAM currently available =  269.297 MB.
Maximum ngspice program size =   13.516 MB.
Current ngspice program size =   12.016 MB.

