
Note: No compatibility mode selected!


Circuit: NOR2 seed characterization sample 4204023

Doing analysis at TEMP = 21.517200 and TNOM = 27.000000

Using SPARSE 1.3 as Direct Linear Solver

Initial Transient Solution
--------------------------

Node                                   Voltage
----                                   -------
vdd                                    1.86949
in                                           0
out                                    1.86949
pmid                                   1.86949
vin#branch                                   0
vdd#branch                        -1.02513e-11

 Reference value :  4.29595e-08
 Reference value :  1.03878e-07
No. of Data Rows : 60044

  Measurements for Transient Analysis

tphl                =  1.35365e-10 targ=  2.24461e-09 trig=  2.10924e-09
tplh                =  4.87712e-10 targ=  2.28154e-08 trig=  2.23277e-08
i_vdd_avg           =  -3.53047e-06 from=  5.00000e-09 to=  1.10002e-07
power_avg_uw        =  6.60019e+00


Total analysis time (seconds) = 0.478735

Total elapsed time (seconds) = 0.561 

Total DRAM available = 16384.000 MB.
DRAM currently available =  250.875 MB.
Maximum ngspice program size =   13.547 MB.
Current ngspice program size =   13.453 MB.

