
Note: No compatibility mode selected!


Circuit: NAND2 seed characterization sample 4204034

Doing analysis at TEMP = 58.654900 and TNOM = 27.000000

Using SPARSE 1.3 as Direct Linear Solver

Initial Transient Solution
--------------------------

Node                                   Voltage
----                                   -------
vdd                                    1.76044
in                                           0
out                                    1.76044
nmid                                 0.0550818
vin#branch                                   0
vdd#branch                        -2.12942e-11

 Reference value :  4.36079e-08
 Reference value :  1.05117e-07
No. of Data Rows : 60041

  Measurements for Transient Analysis

tphl                =  1.25923e-10 targ=  2.13639e-09 trig=  2.01047e-09
tplh                =  5.75778e-11 targ=  2.20890e-08 trig=  2.20314e-08
i_vdd_avg           =  -2.94703e-06 from=  5.00000e-09 to=  1.10001e-07
power_avg_uw        =  5.18806e+00


Total analysis time (seconds) = 0.472191

Total elapsed time (seconds) = 0.554 

Total DRAM available = 16384.000 MB.
DRAM currently available =  261.984 MB.
Maximum ngspice program size =   12.797 MB.
Current ngspice program size =   12.203 MB.

