
Note: No compatibility mode selected!


Circuit: XOR2 seed characterization sample 4204028

Doing analysis at TEMP = 98.802600 and TNOM = 27.000000

Using SPARSE 1.3 as Direct Linear Solver

Initial Transient Solution
--------------------------

Node                                   Voltage
----                                   -------
vdd                                    1.96536
in                                           0
b                                      1.96536
abar                                   1.96536
bbar                               8.38191e-08
out                                    1.96536
vb#branch                                    0
vin#branch                         1.43575e-09
vdd#branch                        -2.56836e-09

 Reference value :  2.53313e-08
 Reference value :  5.91472e-08
 Reference value :  9.51992e-08
No. of Data Rows : 60044

  Measurements for Transient Analysis

tphl                =  1.99876e-10 targ=  2.36796e-09 trig=  2.16808e-09
tplh                =  2.08211e-10 targ=  2.27125e-08 trig=  2.25042e-08
i_vdd_avg           =  -5.12135e-06 from=  5.00000e-09 to=  1.10001e-07
power_avg_uw        =  1.00653e+01


Total analysis time (seconds) = 0.822469

Total elapsed time (seconds) = 0.897 

Total DRAM available = 16384.000 MB.
DRAM currently available =  270.594 MB.
Maximum ngspice program size =   12.578 MB.
Current ngspice program size =   12.188 MB.

