
Note: No compatibility mode selected!


Circuit: INV seed characterization sample 4204041

Doing analysis at TEMP = 18.180600 and TNOM = 27.000000

Using SPARSE 1.3 as Direct Linear Solver

Initial Transient Solution
--------------------------

Node                                   Voltage
----                                   -------
vdd                                    1.78578
in                                           0
out                                    1.78578
vin#branch                                   0
vdd#branch                        -8.84466e-12

 Reference value :  6.42800e-08
No. of Data Rows : 60044

  Measurements for Transient Analysis

tphl                =  2.21920e-10 targ=  2.44717e-09 trig=  2.22525e-09
tplh                =  3.11483e-10 targ=  2.29872e-08 trig=  2.26757e-08
i_vdd_avg           =  -5.58178e-06 from=  5.00000e-09 to=  1.10002e-07
power_avg_uw        =  9.96784e+00


Total analysis time (seconds) = 0.290829

Total elapsed time (seconds) = 0.384 

Total DRAM available = 16384.000 MB.
DRAM currently available =  241.703 MB.
Maximum ngspice program size =   13.156 MB.
Current ngspice program size =   12.312 MB.

