
Note: No compatibility mode selected!


Circuit: NAND2 seed characterization sample 6100028

Doing analysis at TEMP = 85.813600 and TNOM = 27.000000

Using SPARSE 1.3 as Direct Linear Solver

Initial Transient Solution
--------------------------

Node                                   Voltage
----                                   -------
vdd                                    1.87117
in                                           0
out                                    1.87117
nmid                                 0.0589473
vin#branch                                   0
vdd#branch                        -7.60557e-11

 Reference value :  3.15172e-08
 Reference value :  7.75852e-08
No. of Data Rows : 60047

  Measurements for Transient Analysis

tphl                =  3.02973e-10 targ=  2.53652e-09 trig=  2.23354e-09
tplh                =  1.46378e-10 targ=  2.28470e-08 trig=  2.27006e-08
i_vdd_avg           =  -4.66403e-06 from=  5.00000e-09 to=  1.10001e-07
power_avg_uw        =  8.72719e+00


Total analysis time (seconds) = 0.651875

Total elapsed time (seconds) = 0.748 

Total DRAM available = 16384.000 MB.
DRAM currently available =   79.891 MB.
Maximum ngspice program size =   16.453 MB.
Current ngspice program size =   16.453 MB.

