
Note: No compatibility mode selected!


Circuit: NAND2 seed characterization sample 6100032

Doing analysis at TEMP = -11.797500 and TNOM = 27.000000

Using SPARSE 1.3 as Direct Linear Solver

Initial Transient Solution
--------------------------

Node                                   Voltage
----                                   -------
vdd                                     1.6669
in                                           0
out                                     1.6669
nmid                                 0.0297904
vin#branch                                   0
vdd#branch                        -1.78745e-12

 Reference value :  3.39519e-08
 Reference value :  8.03979e-08
No. of Data Rows : 60047

  Measurements for Transient Analysis

tphl                =  1.67417e-10 targ=  2.33313e-09 trig=  2.16572e-09
tplh                =  1.03897e-10 targ=  2.26010e-08 trig=  2.24971e-08
i_vdd_avg           =  -1.49839e-06 from=  5.00000e-09 to=  1.10002e-07
power_avg_uw        =  2.49766e+00


Total analysis time (seconds) = 0.633457

Total elapsed time (seconds) = 0.729 

Total DRAM available = 16384.000 MB.
DRAM currently available =   79.891 MB.
Maximum ngspice program size =   15.047 MB.
Current ngspice program size =   15.047 MB.

