
Note: No compatibility mode selected!


Circuit: INV seed characterization sample 6100013

Doing analysis at TEMP = 1.759540 and TNOM = 27.000000

Using SPARSE 1.3 as Direct Linear Solver

Initial Transient Solution
--------------------------

Node                                   Voltage
----                                   -------
vdd                                    1.94547
in                                           0
out                                    1.94547
vin#branch                                   0
vdd#branch                        -3.57759e-12

 Reference value :  5.08494e-08
No. of Data Rows : 60044

  Measurements for Transient Analysis

tphl                =  1.74854e-10 targ=  2.27503e-09 trig=  2.10018e-09
tplh                =  2.37689e-10 targ=  2.25382e-08 trig=  2.23005e-08
i_vdd_avg           =  -5.34571e-06 from=  5.00000e-09 to=  1.10002e-07
power_avg_uw        =  1.03999e+01


Total analysis time (seconds) = 0.375409

Total elapsed time (seconds) = 0.479 

Total DRAM available = 16384.000 MB.
DRAM currently available =   75.594 MB.
Maximum ngspice program size =   15.266 MB.
Current ngspice program size =   15.266 MB.

