
Note: No compatibility mode selected!


Circuit: XOR2 seed characterization sample 6100082

Doing analysis at TEMP = 24.364500 and TNOM = 27.000000

Using SPARSE 1.3 as Direct Linear Solver

Initial Transient Solution
--------------------------

Node                                   Voltage
----                                   -------
vdd                                    1.68704
in                                           0
b                                      1.68704
abar                                   1.68704
bbar                               1.29977e-09
out                                    1.68704
vb#branch                                    0
vin#branch                         1.66522e-11
vdd#branch                        -3.67628e-11

 Reference value :  1.34172e-08
 Reference value :  4.30152e-08
 Reference value :  7.47894e-08
 Reference value :  1.09117e-07
No. of Data Rows : 60044

  Measurements for Transient Analysis

tphl                =  2.08875e-10 targ=  2.31397e-09 trig=  2.10510e-09
tplh                =  2.34514e-10 targ=  2.25498e-08 trig=  2.23153e-08
i_vdd_avg           =  -4.85235e-06 from=  5.00000e-09 to=  1.10001e-07
power_avg_uw        =  8.18611e+00


Total analysis time (seconds) = 0.946266

Total elapsed time (seconds) = 1.070 

Total DRAM available = 16384.000 MB.
DRAM currently available =   96.875 MB.
Maximum ngspice program size =   13.516 MB.
Current ngspice program size =   12.094 MB.

