
Note: No compatibility mode selected!


Circuit: XOR2 seed characterization sample 6100091

Doing analysis at TEMP = 53.674200 and TNOM = 27.000000

Using SPARSE 1.3 as Direct Linear Solver

Initial Transient Solution
--------------------------

Node                                   Voltage
----                                   -------
vdd                                      1.768
in                                           0
b                                        1.768
abar                                     1.768
bbar                               4.58041e-09
out                                      1.768
vb#branch                                    0
vin#branch                         1.01668e-10
vdd#branch                         -1.8826e-10

 Reference value :  1.35070e-08
 Reference value :  4.31110e-08
 Reference value :  7.44551e-08
 Reference value :  1.08009e-07
No. of Data Rows : 60044

  Measurements for Transient Analysis

tphl                =  1.02016e-10 targ=  2.13404e-09 trig=  2.03202e-09
tplh                =  1.17946e-10 targ=  2.22140e-08 trig=  2.20961e-08
i_vdd_avg           =  -2.38007e-06 from=  5.00000e-09 to=  1.10001e-07
power_avg_uw        =  4.20797e+00


Total analysis time (seconds) = 0.954547

Total elapsed time (seconds) = 1.077 

Total DRAM available = 16384.000 MB.
DRAM currently available =  105.266 MB.
Maximum ngspice program size =   12.969 MB.
Current ngspice program size =   12.828 MB.

