
Note: No compatibility mode selected!


Circuit: NAND2 seed characterization sample 6100033

Doing analysis at TEMP = 77.036100 and TNOM = 27.000000

Using SPARSE 1.3 as Direct Linear Solver

Initial Transient Solution
--------------------------

Node                                   Voltage
----                                   -------
vdd                                    1.81553
in                                           0
out                                    1.81553
nmid                                 0.0573356
vin#branch                                   0
vdd#branch                        -3.47102e-11

 Reference value :  3.38178e-08
 Reference value :  8.02938e-08
No. of Data Rows : 60047

  Measurements for Transient Analysis

tphl                =  2.45014e-10 targ=  2.25677e-09 trig=  2.01175e-09
tplh                =  1.04281e-10 targ=  2.21395e-08 trig=  2.20353e-08
i_vdd_avg           =  -3.83495e-06 from=  5.00000e-09 to=  1.10002e-07
power_avg_uw        =  6.96246e+00


Total analysis time (seconds) = 0.640976

Total elapsed time (seconds) = 0.732 

Total DRAM available = 16384.000 MB.
DRAM currently available =   79.891 MB.
Maximum ngspice program size =   14.125 MB.
Current ngspice program size =   14.125 MB.

