
Note: No compatibility mode selected!


Circuit: GF180MCU library cell oai21_4 A1_to_ZN__A2=0,B=1

Doing analysis at TEMP = 91.134532 and TNOM = 27.000000

Using SPARSE 1.3 as Direct Linear Solver

Initial Transient Solution
--------------------------

Node                                   Voltage
----                                   -------
vdd                                    1.65486
a1                                           0
a2                                           0
b                                      1.65486
zn                                     1.65486
xu1.net_0                          5.31584e-07
xu1.net_1_0                            1.65486
xu1.net_1_1                            1.65486
xu1.net_1_2                            1.65486
xu1.net_1_3                            1.65486
vfix_b#branch                                0
vfix_a2#branch                               0
vin#branch                                   0
vdd#branch                        -3.98109e-10

 Reference value :  2.11314e-08
 Reference value :  5.14012e-08
 Reference value :  8.00362e-08
 Reference value :  1.10275e-07
 Reference value :  1.39350e-07
 Reference value :  1.69140e-07
 Reference value :  1.98281e-07
 Reference value :  2.27541e-07
 Reference value :  2.57376e-07
 Reference value :  2.87470e-07
 Reference value :  3.15295e-07
No. of Data Rows : 68034

  Measurements for Transient Analysis

tphl                =  1.47703e-09 targ=  2.75989e-08 trig=  2.61219e-08
tplh                =  3.23288e-09 targ=  1.03598e-07 trig=  1.00366e-07
i_vdd_avg           =  -1.53669e-06 from=  1.00000e-08 to=  3.30005e-07
power_avg_uw        =  2.54302e+00


Total analysis time (seconds) = 3.20262

Total elapsed time (seconds) = 3.282 

Total DRAM available = 16384.000 MB.
DRAM currently available =  171.125 MB.
Maximum ngspice program size =   17.219 MB.
Current ngspice program size =   17.219 MB.

