
Note: No compatibility mode selected!


Circuit: GF180MCU library cell nor2_4 A1_to_ZN__A2=0

Doing analysis at TEMP = 120.581700 and TNOM = 27.000000

Using SPARSE 1.3 as Direct Linear Solver

Initial Transient Solution
--------------------------

Node                                   Voltage
----                                   -------
vdd                                    1.74706
a1                                           0
a2                                           0
zn                                     1.74705
xu1.net_0_0                            1.74705
xu1.net_0_1                            1.74705
xu1.net_0_2                            1.74705
xu1.net_0_3                            1.74705
vfix_a2#branch                               0
vin#branch                                   0
vdd#branch                        -1.46199e-09

 Reference value :  2.92375e-08
 Reference value :  7.42966e-08
 Reference value :  1.17646e-07
 Reference value :  1.58146e-07
 Reference value :  2.01167e-07
 Reference value :  2.43347e-07
 Reference value :  2.83516e-07
 Reference value :  3.26186e-07
No. of Data Rows : 68032

  Measurements for Transient Analysis

tphl                =  9.71889e-10 targ=  2.79414e-08 trig=  2.69695e-08
tplh                =  2.56132e-09 targ=  1.05470e-07 trig=  1.02909e-07
i_vdd_avg           =  -1.16791e-06 from=  1.00000e-08 to=  3.30001e-07
power_avg_uw        =  2.04041e+00


Total analysis time (seconds) = 2.19487

Total elapsed time (seconds) = 2.274 

Total DRAM available = 16384.000 MB.
DRAM currently available =  174.375 MB.
Maximum ngspice program size =   17.250 MB.
Current ngspice program size =   17.250 MB.

