
Note: No compatibility mode selected!


Circuit: GF180MCU library cell mux2_4 I0_to_Z__I1=0,S=0

Doing analysis at TEMP = 51.548504 and TNOM = 27.000000

Using SPARSE 1.3 as Direct Linear Solver

Initial Transient Solution
--------------------------

Node                                   Voltage
----                                   -------
vdd                                    1.97863
i0                                           0
i1                                           0
s                                            0
xu1.int04                              1.97863
z                                   8.9003e-09
xu1.net_1                            0.0475866
xu1.net_3                              1.48268
xu1.sel1_n                             1.97863
xu1.net_0                              1.97863
xu1.net_2                              1.97863
vfix_s#branch                                0
vfix_i1#branch                               0
vin#branch                                   0
vdd#branch                        -3.01923e-11

 Reference value :  2.34364e-08
 Reference value :  6.19413e-08
 Reference value :  1.00411e-07
 Reference value :  1.37940e-07
 Reference value :  1.76355e-07
 Reference value :  2.14806e-07
 Reference value :  2.53161e-07
 Reference value :  2.90690e-07
 Reference value :  3.26240e-07
No. of Data Rows : 68032

  Measurements for Transient Analysis

tplh                =  1.13961e-09 targ=  3.03615e-08 trig=  2.92219e-08
tphl                =  2.68318e-09 targ=  1.12349e-07 trig=  1.09666e-07
i_vdd_avg           =  -1.53715e-06 from=  1.00000e-08 to=  3.30000e-07
power_avg_uw        =  3.04144e+00


Total analysis time (seconds) = 2.7518

Total elapsed time (seconds) = 2.822 

Total DRAM available = 16384.000 MB.
DRAM currently available =  204.641 MB.
Maximum ngspice program size =   17.484 MB.
Current ngspice program size =   17.484 MB.

