
Note: No compatibility mode selected!


Circuit: GF180MCU library cell inv_4 I_to_ZN

Doing analysis at TEMP = -0.565922 and TNOM = 27.000000

Using SPARSE 1.3 as Direct Linear Solver

Initial Transient Solution
--------------------------

Node                                   Voltage
----                                   -------
vdd                                    1.95374
i                                            0
zn                                     1.95374
vin#branch                                   0
vdd#branch                        -8.41376e-12

 Reference value :  5.62198e-08
 Reference value :  1.42942e-07
 Reference value :  2.26400e-07
 Reference value :  3.07162e-07
No. of Data Rows : 68030

  Measurements for Transient Analysis

tphl                =  3.76162e-10 targ=  2.85573e-08 trig=  2.81812e-08
tplh                =  1.82175e-09 targ=  1.08365e-07 trig=  1.06544e-07
i_vdd_avg           =  -1.19429e-06 from=  1.00000e-08 to=  3.30002e-07
power_avg_uw        =  2.33333e+00


Total analysis time (seconds) = 1.15026

Total elapsed time (seconds) = 1.228 

Total DRAM available = 16384.000 MB.
DRAM currently available =  166.281 MB.
Maximum ngspice program size =   17.234 MB.
Current ngspice program size =   17.234 MB.

