
Note: No compatibility mode selected!


Circuit: GF180MCU library cell nor2_1 A1_to_ZN__A2=0

Doing analysis at TEMP = -20.667688 and TNOM = 27.000000

Using SPARSE 1.3 as Direct Linear Solver

Initial Transient Solution
--------------------------

Node                                   Voltage
----                                   -------
vdd                                    1.88573
a1                                           0
a2                                           0
zn                                     1.88573
xu1.net_0                              1.88573
vfix_a2#branch                               0
vin#branch                                   0
vdd#branch                        -3.83684e-12

 Reference value :  8.68989e-08
 Reference value :  2.24919e-07
No. of Data Rows : 68030

  Measurements for Transient Analysis

tphl                =  3.03830e-09 targ=  3.05615e-08 trig=  2.75232e-08
tplh                =  6.71636e-09 targ=  1.11286e-07 trig=  1.04570e-07
i_vdd_avg           =  -1.62150e-06 from=  1.00000e-08 to=  3.30000e-07
power_avg_uw        =  3.05771e+00


Total analysis time (seconds) = 0.711492

Total elapsed time (seconds) = 0.793 

Total DRAM available = 16384.000 MB.
DRAM currently available =  134.312 MB.
Maximum ngspice program size =   18.875 MB.
Current ngspice program size =   18.875 MB.

