
Note: No compatibility mode selected!


Circuit: GF180MCU library cell xor2_4 A1_to_Z__A2=0

Doing analysis at TEMP = -38.083046 and TNOM = 27.000000

Using SPARSE 1.3 as Direct Linear Solver

Initial Transient Solution
--------------------------

Node                                   Voltage
----                                   -------
vdd                                    1.65065
a1                                           0
a2                                           0
xu1.net_2                           0.00406961
xu1.i                                  1.65065
xu1.net_0                          2.08495e-11
xu1.z_neg                              1.65065
z                                  6.85363e-09
xu1.net_1                              1.65065
vfix_a2#branch                               0
vin#branch                                   0
vdd#branch                        -1.20118e-11

 Reference value :  2.49175e-08
 Reference value :  6.24514e-08
 Reference value :  1.02306e-07
 Reference value :  1.39445e-07
 Reference value :  1.79435e-07
 Reference value :  2.15176e-07
 Reference value :  2.52836e-07
 Reference value :  2.92085e-07
 Reference value :  3.28410e-07
No. of Data Rows : 68032

  Measurements for Transient Analysis

tplh                =  2.03521e-09 targ=  2.87021e-08 trig=  2.66669e-08
tphl                =  2.80991e-09 targ=  1.04811e-07 trig=  1.02001e-07
i_vdd_avg           =  -1.85294e-06 from=  1.00000e-08 to=  3.30000e-07
power_avg_uw        =  3.05856e+00


Total analysis time (seconds) = 2.49179

Total elapsed time (seconds) = 2.583 

Total DRAM available = 16384.000 MB.
DRAM currently available =  212.250 MB.
Maximum ngspice program size =   16.922 MB.
Current ngspice program size =   16.922 MB.

