
Note: No compatibility mode selected!


Circuit: GF180MCU library cell mux2_1 I0_to_Z__I1=0,S=0

Doing analysis at TEMP = 78.964716 and TNOM = 27.000000

Using SPARSE 1.3 as Direct Linear Solver

Initial Transient Solution
--------------------------

Node                                   Voltage
----                                   -------
vdd                                    1.88477
i0                                           0
i1                                           0
s                                            0
xu1.int04                              1.88477
z                                   1.1149e-08
xu1.net_1                            0.0525071
xu1.net_3                              1.43641
xu1.sel1_n                             1.88477
xu1.net_0                              1.88477
xu1.net_2                              1.88477
vfix_s#branch                                0
vfix_i1#branch                               0
vin#branch                                   0
vdd#branch                        -1.53851e-10

 Reference value :  3.69354e-08
 Reference value :  9.10604e-08
 Reference value :  1.47448e-07
 Reference value :  2.02795e-07
 Reference value :  2.58133e-07
 Reference value :  3.13138e-07
No. of Data Rows : 68034

  Measurements for Transient Analysis

tplh                =  1.56694e-09 targ=  2.63509e-08 trig=  2.47840e-08
tphl                =  1.50882e-09 targ=  9.78607e-08 trig=  9.63519e-08
i_vdd_avg           =  -6.94151e-07 from=  1.00000e-08 to=  3.30003e-07
power_avg_uw        =  1.30832e+00


Total analysis time (seconds) = 1.66112

Total elapsed time (seconds) = 1.746 

Total DRAM available = 16384.000 MB.
DRAM currently available =  217.438 MB.
Maximum ngspice program size =   17.969 MB.
Current ngspice program size =   17.969 MB.

