
Note: No compatibility mode selected!


Circuit: GF180MCU library cell nor2_1 A1_to_ZN__A2=0

Doing analysis at TEMP = -2.959002 and TNOM = 27.000000

Using SPARSE 1.3 as Direct Linear Solver

Initial Transient Solution
--------------------------

Node                                   Voltage
----                                   -------
vdd                                    1.66795
a1                                           0
a2                                           0
zn                                     1.66795
xu1.net_0                              1.66795
vfix_a2#branch                               0
vin#branch                                   0
vdd#branch                        -3.56894e-12

 Reference value :  1.15703e-07
 Reference value :  2.67193e-07
No. of Data Rows : 68032

  Measurements for Transient Analysis

tphl                =  2.75820e-09 targ=  2.72482e-08 trig=  2.44900e-08
tplh                =  9.28240e-09 targ=  1.04753e-07 trig=  9.54701e-08
i_vdd_avg           =  -1.93510e-06 from=  1.00000e-08 to=  3.30003e-07
power_avg_uw        =  3.22765e+00


Total analysis time (seconds) = 0.612188

Total elapsed time (seconds) = 0.695 

Total DRAM available = 16384.000 MB.
DRAM currently available =   84.594 MB.
Maximum ngspice program size =   18.750 MB.
Current ngspice program size =   18.750 MB.

