
Note: No compatibility mode selected!


Circuit: GF180MCU library cell mux2_1 I0_to_Z__I1=0,S=0

Doing analysis at TEMP = 63.273965 and TNOM = 27.000000

Using SPARSE 1.3 as Direct Linear Solver

Initial Transient Solution
--------------------------

Node                                   Voltage
----                                   -------
vdd                                    1.74132
i0                                           0
i1                                           0
s                                            0
xu1.int04                              1.74131
z                                  9.61713e-09
xu1.net_1                            0.0491726
xu1.net_3                              1.31973
xu1.sel1_n                             1.74131
xu1.net_0                              1.74132
xu1.net_2                              1.74131
vfix_s#branch                                0
vfix_i1#branch                               0
vin#branch                                   0
vdd#branch                         -7.1049e-11

 Reference value :  3.41771e-08
 Reference value :  9.00171e-08
 Reference value :  1.44407e-07
 Reference value :  1.96887e-07
 Reference value :  2.49852e-07
 Reference value :  3.03007e-07
No. of Data Rows : 68032

  Measurements for Transient Analysis

tplh                =  3.60480e-09 targ=  3.23996e-08 trig=  2.87948e-08
tphl                =  3.84972e-09 targ=  1.12234e-07 trig=  1.08384e-07
i_vdd_avg           =  -1.58025e-06 from=  1.00000e-08 to=  3.30002e-07
power_avg_uw        =  2.75171e+00


Total analysis time (seconds) = 1.79293

Total elapsed time (seconds) = 1.876 

Total DRAM available = 16384.000 MB.
DRAM currently available =  134.312 MB.
Maximum ngspice program size =   19.547 MB.
Current ngspice program size =   19.547 MB.

