
Note: No compatibility mode selected!


Circuit: GF180MCU library cell oai21_1 A1_to_ZN__A2=0,B=1

Doing analysis at TEMP = 83.077743 and TNOM = 27.000000

Using SPARSE 1.3 as Direct Linear Solver

Initial Transient Solution
--------------------------

Node                                   Voltage
----                                   -------
vdd                                    1.83833
a1                                           0
a2                                           0
b                                      1.83833
zn                                     1.83833
xu1.net_0                          3.39711e-07
xu1.net_1                              1.83833
vfix_b#branch                                0
vfix_a2#branch                               0
vin#branch                                   0
vdd#branch                        -7.40488e-11

 Reference value :  7.28585e-08
 Reference value :  1.70410e-07
 Reference value :  2.77570e-07
No. of Data Rows : 68032

  Measurements for Transient Analysis

tphl                =  2.94983e-09 targ=  3.22154e-08 trig=  2.92655e-08
tplh                =  6.19120e-09 targ=  1.15988e-07 trig=  1.09797e-07
i_vdd_avg           =  -9.99573e-07 from=  1.00000e-08 to=  3.30005e-07
power_avg_uw        =  1.83755e+00


Total analysis time (seconds) = 0.951421

Total elapsed time (seconds) = 1.038 

Total DRAM available = 16384.000 MB.
DRAM currently available =  171.125 MB.
Maximum ngspice program size =   18.234 MB.
Current ngspice program size =   18.234 MB.

