
Note: No compatibility mode selected!


Circuit: GF180MCU library cell inv_4 I_to_ZN

Doing analysis at TEMP = 85.184248 and TNOM = 27.000000

Using SPARSE 1.3 as Direct Linear Solver

Initial Transient Solution
--------------------------

Node                                   Voltage
----                                   -------
vdd                                    1.63853
i                                            0
zn                                     1.63853
vin#branch                                   0
vdd#branch                        -1.48659e-10

 Reference value :  5.25510e-08
 Reference value :  1.34784e-07
 Reference value :  2.14476e-07
 Reference value :  2.87859e-07
No. of Data Rows : 68034

  Measurements for Transient Analysis

tphl                =  9.20871e-10 targ=  2.70951e-08 trig=  2.61742e-08
tplh                =  1.87432e-09 targ=  1.02397e-07 trig=  1.00523e-07
i_vdd_avg           =  -1.17273e-06 from=  1.00000e-08 to=  3.30004e-07
power_avg_uw        =  1.92155e+00


Total analysis time (seconds) = 1.15758

Total elapsed time (seconds) = 1.236 

Total DRAM available = 16384.000 MB.
DRAM currently available =  174.375 MB.
Maximum ngspice program size =   17.578 MB.
Current ngspice program size =   17.578 MB.

