
Note: No compatibility mode selected!


Circuit: GF180MCU library cell mux2_1 I0_to_Z__I1=0,S=0

Doing analysis at TEMP = 1.486455 and TNOM = 27.000000

Using SPARSE 1.3 as Direct Linear Solver

Initial Transient Solution
--------------------------

Node                                   Voltage
----                                   -------
vdd                                    1.73815
i0                                           0
i1                                           0
s                                            0
xu1.int04                              1.73815
z                                  7.65228e-09
xu1.net_1                            0.0315915
xu1.net_3                               1.2814
xu1.sel1_n                             1.73815
xu1.net_0                              1.73815
xu1.net_2                              1.73815
vfix_s#branch                                0
vfix_i1#branch                               0
vin#branch                                   0
vdd#branch                        -1.08688e-11

 Reference value :  3.47447e-08
 Reference value :  9.16397e-08
 Reference value :  1.47257e-07
 Reference value :  2.02390e-07
 Reference value :  2.57080e-07
 Reference value :  3.13042e-07
No. of Data Rows : 68030

  Measurements for Transient Analysis

tplh                =  5.58196e-10 targ=  2.72668e-08 trig=  2.67086e-08
tphl                =  1.58032e-09 targ=  1.03706e-07 trig=  1.02126e-07
i_vdd_avg           =  -1.16951e-07 from=  1.00000e-08 to=  3.30002e-07
power_avg_uw        =  2.03279e-01


Total analysis time (seconds) = 1.93987

Total elapsed time (seconds) = 2.036 

Total DRAM available = 16384.000 MB.
DRAM currently available =  122.422 MB.
Maximum ngspice program size =   18.984 MB.
Current ngspice program size =   18.984 MB.

