
Note: No compatibility mode selected!


Circuit: GF180MCU library cell nand2_4 A1_to_ZN__A2=1

Doing analysis at TEMP = 45.714253 and TNOM = 27.000000

Using SPARSE 1.3 as Direct Linear Solver

Initial Transient Solution
--------------------------

Node                                   Voltage
----                                   -------
vdd                                     1.6926
a1                                           0
a2                                      1.6926
xu1.net_0_0                        1.87643e-08
zn                                      1.6926
xu1.net_0_1                        1.87643e-08
xu1.net_0_2                        1.87643e-08
xu1.net_0_3                        1.87643e-08
vfix_a2#branch                               0
vin#branch                                   0
vdd#branch                        -2.23747e-11

 Reference value :  2.74625e-08
 Reference value :  7.08019e-08
 Reference value :  1.11372e-07
 Reference value :  1.57561e-07
 Reference value :  2.01692e-07
 Reference value :  2.44937e-07
 Reference value :  2.88326e-07
 Reference value :  3.28256e-07
No. of Data Rows : 68032

  Measurements for Transient Analysis

tphl                =  2.09254e-09 targ=  3.10522e-08 trig=  2.89597e-08
tplh                =  3.69021e-09 targ=  1.12569e-07 trig=  1.08879e-07
i_vdd_avg           =  -2.00053e-06 from=  1.00000e-08 to=  3.30001e-07
power_avg_uw        =  3.38610e+00


Total analysis time (seconds) = 2.21759

Total elapsed time (seconds) = 2.290 

Total DRAM available = 16384.000 MB.
DRAM currently available =  171.125 MB.
Maximum ngspice program size =   18.594 MB.
Current ngspice program size =   18.594 MB.

