
Note: No compatibility mode selected!


Circuit: GF180MCU library cell xor2_1 A1_to_Z__A2=0

Doing analysis at TEMP = 91.516045 and TNOM = 27.000000

Using SPARSE 1.3 as Direct Linear Solver

Initial Transient Solution
--------------------------

Node                                   Voltage
----                                   -------
vdd                                    1.70776
a1                                           0
a2                                           0
xu1.i                                  1.70774
z                                  4.14275e-08
xu1.net_0                          2.06508e-08
xu1.net_2                              1.70775
xu1.net_1                             0.513111
vfix_a2#branch                               0
vin#branch                                   0
vdd#branch                        -2.46735e-10

 Reference value :  4.60809e-08
 Reference value :  1.12016e-07
 Reference value :  1.75229e-07
 Reference value :  2.36796e-07
 Reference value :  3.02404e-07
No. of Data Rows : 68034

  Measurements for Transient Analysis

tplh                =  1.93902e-09 targ=  3.15107e-08 trig=  2.95717e-08
tphl                =  3.03653e-09 targ=  1.13752e-07 trig=  1.10715e-07
i_vdd_avg           =  -5.32426e-07 from=  1.00000e-08 to=  3.30004e-07
power_avg_uw        =  9.09254e-01


Total analysis time (seconds) = 1.4691

Total elapsed time (seconds) = 1.543 

Total DRAM available = 16384.000 MB.
DRAM currently available =  204.641 MB.
Maximum ngspice program size =   17.891 MB.
Current ngspice program size =   17.891 MB.

