
Note: No compatibility mode selected!


Circuit: GF180MCU library cell nor2_1 A1_to_ZN__A2=0

Doing analysis at TEMP = 23.093194 and TNOM = 27.000000

Using SPARSE 1.3 as Direct Linear Solver

Initial Transient Solution
--------------------------

Node                                   Voltage
----                                   -------
vdd                                    1.70144
a1                                           0
a2                                           0
zn                                     1.70144
xu1.net_0                              1.70144
vfix_a2#branch                               0
vin#branch                                   0
vdd#branch                         -5.1547e-12

 Reference value :  9.73996e-08
 Reference value :  2.33955e-07
No. of Data Rows : 68030

  Measurements for Transient Analysis

tphl                =  2.28843e-09 targ=  3.13870e-08 trig=  2.90985e-08
tplh                =  5.26243e-09 targ=  1.14558e-07 trig=  1.09296e-07
i_vdd_avg           =  -6.14296e-07 from=  1.00000e-08 to=  3.30002e-07
power_avg_uw        =  1.04519e+00


Total analysis time (seconds) = 0.658765

Total elapsed time (seconds) = 0.738 

Total DRAM available = 16384.000 MB.
DRAM currently available =  171.125 MB.
Maximum ngspice program size =   17.516 MB.
Current ngspice program size =   17.516 MB.

