
Note: No compatibility mode selected!


Circuit: GF180MCU library cell xor2_1 A1_to_Z__A2=0

Doing analysis at TEMP = 24.456365 and TNOM = 27.000000

Using SPARSE 1.3 as Direct Linear Solver

Initial Transient Solution
--------------------------

Node                                   Voltage
----                                   -------
vdd                                    1.96581
a1                                           0
a2                                           0
xu1.i                                  1.96581
z                                  3.02204e-08
xu1.net_0                          1.28094e-08
xu1.net_2                              1.96581
xu1.net_1                             0.685886
vfix_a2#branch                               0
vin#branch                                   0
vdd#branch                        -1.87044e-11

 Reference value :  4.77170e-08
 Reference value :  1.14631e-07
 Reference value :  1.81941e-07
 Reference value :  2.48702e-07
 Reference value :  3.14721e-07
No. of Data Rows : 68032

  Measurements for Transient Analysis

tplh                =  6.81265e-09 targ=  3.22899e-08 trig=  2.54772e-08
tphl                =  2.57410e-09 targ=  1.01006e-07 trig=  9.84317e-08
i_vdd_avg           =  -2.22877e-06 from=  1.00000e-08 to=  3.30001e-07
power_avg_uw        =  4.38135e+00


Total analysis time (seconds) = 1.39247

Total elapsed time (seconds) = 1.467 

Total DRAM available = 16384.000 MB.
DRAM currently available =  219.141 MB.
Maximum ngspice program size =   18.000 MB.
Current ngspice program size =   18.000 MB.

