
Note: No compatibility mode selected!


Circuit: GF180MCU library cell aoi21_4 A1_to_ZN__A2=1,B=0

Doing analysis at TEMP = 70.050572 and TNOM = 27.000000

Using SPARSE 1.3 as Direct Linear Solver

Initial Transient Solution
--------------------------

Node                                   Voltage
----                                   -------
vdd                                    1.82096
a1                                           0
a2                                     1.82096
b                                            0
xu1.net_0_0                        8.27252e-08
zn                                     1.82096
xu1.net_0_1                        8.27252e-08
xu1.net_0_2                        8.27252e-08
xu1.net_0_3                        8.27252e-08
xu1.net_1                              1.82096
vfix_b#branch                                0
vfix_a2#branch                               0
vin#branch                                   0
vdd#branch                        -1.60851e-10

 Reference value :  2.15264e-08
 Reference value :  5.10251e-08
 Reference value :  7.98851e-08
 Reference value :  1.08428e-07
 Reference value :  1.38578e-07
 Reference value :  1.68928e-07
 Reference value :  1.98515e-07
 Reference value :  2.29355e-07
 Reference value :  2.57715e-07
 Reference value :  2.85503e-07
 Reference value :  3.16413e-07
No. of Data Rows : 68034

  Measurements for Transient Analysis

tphl                =  1.44853e-09 targ=  2.86298e-08 trig=  2.71813e-08
tplh                =  3.22171e-09 targ=  1.06766e-07 trig=  1.03544e-07
i_vdd_avg           =  -1.81648e-06 from=  1.00000e-08 to=  3.30003e-07
power_avg_uw        =  3.30773e+00


Total analysis time (seconds) = 3.1995

Total elapsed time (seconds) = 3.274 

Total DRAM available = 16384.000 MB.
DRAM currently available =  253.328 MB.
Maximum ngspice program size =   18.562 MB.
Current ngspice program size =   18.562 MB.

