
Note: No compatibility mode selected!


Circuit: GF180MCU library cell nand3_4 A1_to_ZN__A2=1,A3=1

Doing analysis at TEMP = 6.588944 and TNOM = 27.000000

Using SPARSE 1.3 as Direct Linear Solver

Initial Transient Solution
--------------------------

Node                                   Voltage
----                                   -------
vdd                                     1.8809
a1                                           0
a2                                      1.8809
a3                                      1.8809
xu1.net_1_3                        9.52426e-10
xu1.net_0                          1.90485e-09
xu1.net_1_2                        9.52426e-10
xu1.net_1_1                        9.52426e-10
xu1.net_1_0                        9.52426e-10
xu1.net_0_0                        1.90485e-09
zn                                      1.8809
vfix_a3#branch                               0
vfix_a2#branch                               0
vin#branch                                   0
vdd#branch                        -8.55604e-12

 Reference value :  1.96664e-08
 Reference value :  4.87494e-08
 Reference value :  7.83694e-08
 Reference value :  1.09426e-07
 Reference value :  1.40021e-07
 Reference value :  1.69121e-07
 Reference value :  1.97834e-07
 Reference value :  2.27084e-07
 Reference value :  2.57494e-07
 Reference value :  2.88071e-07
 Reference value :  3.16846e-07
No. of Data Rows : 68030

  Measurements for Transient Analysis

tphl                =  1.55755e-09 targ=  2.74360e-08 trig=  2.58784e-08
tplh                =  2.03161e-09 targ=  1.01667e-07 trig=  9.96353e-08
i_vdd_avg           =  -2.04942e-06 from=  1.00000e-08 to=  3.30001e-07
power_avg_uw        =  3.85476e+00


Total analysis time (seconds) = 3.21415

Total elapsed time (seconds) = 3.295 

Total DRAM available = 16384.000 MB.
DRAM currently available =  156.969 MB.
Maximum ngspice program size =   18.734 MB.
Current ngspice program size =   18.734 MB.

