
Note: No compatibility mode selected!


Circuit: GF180MCU library cell mux2_1 I0_to_Z__I1=0,S=0

Doing analysis at TEMP = 108.205180 and TNOM = 27.000000

Using SPARSE 1.3 as Direct Linear Solver

Initial Transient Solution
--------------------------

Node                                   Voltage
----                                   -------
vdd                                    1.63884
i0                                           0
i1                                           0
s                                            0
xu1.int04                              1.63882
z                                  2.34056e-08
xu1.net_1                            0.0515598
xu1.net_3                              1.23428
xu1.sel1_n                             1.63883
xu1.net_0                              1.63884
xu1.net_2                              1.63883
vfix_s#branch                                0
vfix_i1#branch                               0
vin#branch                                   0
vdd#branch                        -4.77311e-10

 Reference value :  3.46428e-08
 Reference value :  8.94078e-08
 Reference value :  1.41823e-07
 Reference value :  1.95923e-07
 Reference value :  2.48033e-07
 Reference value :  3.01758e-07
No. of Data Rows : 68032

  Measurements for Transient Analysis

tplh                =  4.67086e-09 targ=  3.26060e-08 trig=  2.79352e-08
tphl                =  4.15209e-09 targ=  1.09958e-07 trig=  1.05806e-07
i_vdd_avg           =  -1.65184e-06 from=  1.00000e-08 to=  3.30003e-07
power_avg_uw        =  2.70710e+00


Total analysis time (seconds) = 1.7552

Total elapsed time (seconds) = 1.842 

Total DRAM available = 16384.000 MB.
DRAM currently available =  212.250 MB.
Maximum ngspice program size =   16.484 MB.
Current ngspice program size =   16.484 MB.

