
Note: No compatibility mode selected!


Circuit: GF180MCU library cell nand2_1 A1_to_ZN__A2=1

Doing analysis at TEMP = 48.263015 and TNOM = 27.000000

Using SPARSE 1.3 as Direct Linear Solver

Initial Transient Solution
--------------------------

Node                                   Voltage
----                                   -------
vdd                                    1.91912
a1                                           0
a2                                     1.91912
xu1.net_0                          2.15293e-08
zn                                     1.91912
vfix_a2#branch                               0
vin#branch                                   0
vdd#branch                        -7.03081e-12

 Reference value :  9.97741e-08
 Reference value :  2.33429e-07
No. of Data Rows : 68030

  Measurements for Transient Analysis

tphl                =  2.07631e-10 targ=  2.68684e-08 trig=  2.66608e-08
tplh                =  9.71427e-10 targ=  1.02954e-07 trig=  1.01982e-07
i_vdd_avg           =  -1.40154e-07 from=  1.00000e-08 to=  3.30001e-07
power_avg_uw        =  2.68973e-01


Total analysis time (seconds) = 0.649369

Total elapsed time (seconds) = 0.730 

Total DRAM available = 16384.000 MB.
DRAM currently available =  166.281 MB.
Maximum ngspice program size =   18.359 MB.
Current ngspice program size =   18.359 MB.

