
Note: No compatibility mode selected!


Circuit: GF180MCU library cell aoi21_1 A1_to_ZN__A2=1,B=0

Doing analysis at TEMP = 63.925744 and TNOM = 27.000000

Using SPARSE 1.3 as Direct Linear Solver

Initial Transient Solution
--------------------------

Node                                   Voltage
----                                   -------
vdd                                    1.86313
a1                                           0
a2                                     1.86313
b                                            0
xu1.net_0                          5.75333e-08
zn                                     1.86313
xu1.net_1                              1.86313
vfix_b#branch                                0
vfix_a2#branch                               0
vin#branch                                   0
vdd#branch                        -3.03353e-11

 Reference value :  7.14660e-08
 Reference value :  1.66849e-07
 Reference value :  2.62749e-07
No. of Data Rows : 68034

  Measurements for Transient Analysis

tphl                =  3.50472e-09 targ=  2.81440e-08 trig=  2.46392e-08
tplh                =  8.67421e-09 targ=  1.04592e-07 trig=  9.59177e-08
i_vdd_avg           =  -2.21639e-06 from=  1.00000e-08 to=  3.30004e-07
power_avg_uw        =  4.12942e+00


Total analysis time (seconds) = 0.939864

Total elapsed time (seconds) = 1.015 

Total DRAM available = 16384.000 MB.
DRAM currently available =  170.422 MB.
Maximum ngspice program size =   18.391 MB.
Current ngspice program size =   18.391 MB.

