
Note: No compatibility mode selected!


Circuit: GF180MCU library cell nand2_1 A1_to_ZN__A2=1

Doing analysis at TEMP = 21.637509 and TNOM = 27.000000

Using SPARSE 1.3 as Direct Linear Solver

Initial Transient Solution
--------------------------

Node                                   Voltage
----                                   -------
vdd                                    1.83781
a1                                           0
a2                                     1.83781
xu1.net_0                          3.26637e-09
zn                                     1.83781
vfix_a2#branch                               0
vin#branch                                   0
vdd#branch                        -2.64183e-12

 Reference value :  8.95839e-08
 Reference value :  2.29469e-07
No. of Data Rows : 68030

  Measurements for Transient Analysis

tphl                =  3.52716e-09 targ=  3.21829e-08 trig=  2.86557e-08
tplh                =  5.09704e-09 targ=  1.13064e-07 trig=  1.07967e-07
i_vdd_avg           =  -1.37222e-06 from=  1.00000e-08 to=  3.30000e-07
power_avg_uw        =  2.52189e+00


Total analysis time (seconds) = 0.696547

Total elapsed time (seconds) = 0.775 

Total DRAM available = 16384.000 MB.
DRAM currently available =  156.969 MB.
Maximum ngspice program size =   15.953 MB.
Current ngspice program size =   15.953 MB.

