
Note: No compatibility mode selected!


Circuit: GF180MCU library cell nand2_4 A1_to_ZN__A2=1

Doing analysis at TEMP = -30.638770 and TNOM = 27.000000

Using SPARSE 1.3 as Direct Linear Solver

Initial Transient Solution
--------------------------

Node                                   Voltage
----                                   -------
vdd                                    1.64762
a1                                           0
a2                                     1.64762
xu1.net_0_0                        2.49719e-11
zn                                     1.64762
xu1.net_0_1                        2.49719e-11
xu1.net_0_2                        2.49719e-11
xu1.net_0_3                        2.49719e-11
vfix_a2#branch                               0
vin#branch                                   0
vdd#branch                        -6.65538e-12

 Reference value :  2.90575e-08
 Reference value :  7.07690e-08
 Reference value :  1.12620e-07
 Reference value :  1.54780e-07
 Reference value :  1.98864e-07
 Reference value :  2.41134e-07
 Reference value :  2.83380e-07
 Reference value :  3.28560e-07
No. of Data Rows : 68030

  Measurements for Transient Analysis

tphl                =  1.43018e-09 targ=  2.86559e-08 trig=  2.72257e-08
tplh                =  2.51256e-09 targ=  1.06190e-07 trig=  1.03677e-07
i_vdd_avg           =  -1.18193e-06 from=  1.00000e-08 to=  3.30000e-07
power_avg_uw        =  1.94737e+00


Total analysis time (seconds) = 2.24251

Total elapsed time (seconds) = 2.314 

Total DRAM available = 16384.000 MB.
DRAM currently available =  170.266 MB.
Maximum ngspice program size =   17.453 MB.
Current ngspice program size =   17.453 MB.

