
Note: No compatibility mode selected!


Circuit: GF180MCU library cell xor2_1 A1_to_Z__A2=0

Doing analysis at TEMP = -37.784030 and TNOM = 27.000000

Using SPARSE 1.3 as Direct Linear Solver

Initial Transient Solution
--------------------------

Node                                   Voltage
----                                   -------
vdd                                    1.84226
a1                                           0
a2                                           0
xu1.i                                  1.84226
z                                  2.38467e-08
xu1.net_0                          1.81641e-10
xu1.net_2                              1.84226
xu1.net_1                              0.76757
vfix_a2#branch                               0
vin#branch                                   0
vdd#branch                        -1.06991e-11

 Reference value :  5.14520e-08
 Reference value :  1.19031e-07
 Reference value :  1.83216e-07
 Reference value :  2.47392e-07
 Reference value :  3.16816e-07
No. of Data Rows : 68032

  Measurements for Transient Analysis

tplh                =  1.62726e-09 targ=  2.57520e-08 trig=  2.41247e-08
tphl                =  8.88948e-10 targ=  9.52632e-08 trig=  9.43742e-08
i_vdd_avg           =  -5.15195e-07 from=  1.00000e-08 to=  3.30001e-07
power_avg_uw        =  9.49125e-01


Total analysis time (seconds) = 1.42015

Total elapsed time (seconds) = 1.498 

Total DRAM available = 16384.000 MB.
DRAM currently available =  114.406 MB.
Maximum ngspice program size =   17.516 MB.
Current ngspice program size =   17.516 MB.

