
Note: No compatibility mode selected!


Circuit: GF180MCU library cell aoi21_4 A1_to_ZN__A2=1,B=0

Doing analysis at TEMP = 39.532689 and TNOM = 27.000000

Using SPARSE 1.3 as Direct Linear Solver

Initial Transient Solution
--------------------------

Node                                   Voltage
----                                   -------
vdd                                    1.88238
a1                                           0
a2                                     1.88238
b                                            0
xu1.net_0_0                        1.20229e-08
zn                                     1.88238
xu1.net_0_1                        1.20229e-08
xu1.net_0_2                        1.20229e-08
xu1.net_0_3                        1.20229e-08
xu1.net_1                              1.88238
vfix_b#branch                                0
vfix_a2#branch                               0
vin#branch                                   0
vdd#branch                         -3.9606e-11

 Reference value :  1.81614e-08
 Reference value :  4.63171e-08
 Reference value :  7.58371e-08
 Reference value :  1.05422e-07
 Reference value :  1.33397e-07
 Reference value :  1.63457e-07
 Reference value :  1.92292e-07
 Reference value :  2.22307e-07
 Reference value :  2.51432e-07
 Reference value :  2.80332e-07
 Reference value :  3.08417e-07
 Reference value :  3.36402e-07
No. of Data Rows : 68032

  Measurements for Transient Analysis

tphl                =  1.58788e-09 targ=  2.80502e-08 trig=  2.64623e-08
tplh                =  3.25919e-09 targ=  1.04646e-07 trig=  1.01387e-07
i_vdd_avg           =  -2.43472e-06 from=  1.00000e-08 to=  3.30002e-07
power_avg_uw        =  4.58308e+00


Total analysis time (seconds) = 3.33615

Total elapsed time (seconds) = 3.423 

Total DRAM available = 16384.000 MB.
DRAM currently available =  170.266 MB.
Maximum ngspice program size =   17.094 MB.
Current ngspice program size =   17.094 MB.

