
Note: No compatibility mode selected!


Circuit: GF180MCU library cell nand2_4 A1_to_ZN__A2=1

Doing analysis at TEMP = 124.349070 and TNOM = 27.000000

Using SPARSE 1.3 as Direct Linear Solver

Initial Transient Solution
--------------------------

Node                                   Voltage
----                                   -------
vdd                                    1.78494
a1                                           0
a2                                     1.78494
xu1.net_0_0                        1.23426e-06
zn                                     1.78493
xu1.net_0_1                        1.23426e-06
xu1.net_0_2                        1.23426e-06
xu1.net_0_3                        1.23426e-06
vfix_a2#branch                               0
vin#branch                                   0
vdd#branch                        -9.08149e-10

 Reference value :  3.30825e-08
 Reference value :  7.84497e-08
 Reference value :  1.25382e-07
 Reference value :  1.71027e-07
 Reference value :  2.20575e-07
 Reference value :  2.68085e-07
 Reference value :  3.14617e-07
No. of Data Rows : 68030

  Measurements for Transient Analysis

tphl                =  1.83677e-11 targ=  2.93495e-08 trig=  2.93311e-08
tplh                =  1.49002e-09 targ=  1.11483e-07 trig=  1.09993e-07
i_vdd_avg           =  -8.30084e-07 from=  1.00000e-08 to=  3.30002e-07
power_avg_uw        =  1.48165e+00


Total analysis time (seconds) = 2.15549

Total elapsed time (seconds) = 2.229 

Total DRAM available = 16384.000 MB.
DRAM currently available =  101.953 MB.
Maximum ngspice program size =   17.203 MB.
Current ngspice program size =   17.203 MB.

