
Note: No compatibility mode selected!


Circuit: GF180MCU library cell oai21_4 A1_to_ZN__A2=0,B=1

Doing analysis at TEMP = -20.133791 and TNOM = 27.000000

Using SPARSE 1.3 as Direct Linear Solver

Initial Transient Solution
--------------------------

Node                                   Voltage
----                                   -------
vdd                                    1.89059
a1                                           0
a2                                           0
b                                      1.89059
zn                                     1.89059
xu1.net_0                          1.51192e-10
xu1.net_1_0                            1.89059
xu1.net_1_1                            1.89059
xu1.net_1_2                            1.89059
xu1.net_1_3                            1.89059
vfix_b#branch                                0
vfix_a2#branch                               0
vin#branch                                   0
vdd#branch                        -1.53766e-11

 Reference value :  2.09064e-08
 Reference value :  4.99115e-08
 Reference value :  7.86965e-08
 Reference value :  1.11370e-07
 Reference value :  1.42035e-07
 Reference value :  1.71565e-07
 Reference value :  2.00976e-07
 Reference value :  2.30756e-07
 Reference value :  2.61850e-07
 Reference value :  2.91695e-07
 Reference value :  3.22525e-07
No. of Data Rows : 68032

  Measurements for Transient Analysis

tphl                =  5.96421e-10 targ=  2.63284e-08 trig=  2.57320e-08
tplh                =  1.50130e-09 targ=  1.00697e-07 trig=  9.91959e-08
i_vdd_avg           =  -8.07177e-07 from=  1.00000e-08 to=  3.30000e-07
power_avg_uw        =  1.52604e+00


Total analysis time (seconds) = 3.08323

Total elapsed time (seconds) = 3.197 

Total DRAM available = 16384.000 MB.
DRAM currently available =  217.438 MB.
Maximum ngspice program size =   19.109 MB.
Current ngspice program size =   19.109 MB.

