
Note: No compatibility mode selected!


Circuit: GF180MCU library cell aoi21_4 A1_to_ZN__A2=1,B=0

Doing analysis at TEMP = -13.486509 and TNOM = 27.000000

Using SPARSE 1.3 as Direct Linear Solver

Initial Transient Solution
--------------------------

Node                                   Voltage
----                                   -------
vdd                                    1.92286
a1                                           0
a2                                     1.92286
b                                            0
xu1.net_0_0                        1.48393e-10
zn                                     1.92286
xu1.net_0_1                        1.48393e-10
xu1.net_0_2                        1.48393e-10
xu1.net_0_3                        1.48393e-10
xu1.net_1                              1.92286
vfix_b#branch                                0
vfix_a2#branch                               0
vin#branch                                   0
vdd#branch                         -1.5846e-11

 Reference value :  2.15514e-08
 Reference value :  5.30699e-08
 Reference value :  8.60699e-08
 Reference value :  1.17152e-07
 Reference value :  1.47187e-07
 Reference value :  1.78247e-07
 Reference value :  2.09775e-07
 Reference value :  2.44305e-07
 Reference value :  2.76817e-07
 Reference value :  3.08282e-07
No. of Data Rows : 68030

  Measurements for Transient Analysis

tphl                =  3.95618e-10 targ=  2.46568e-08 trig=  2.42612e-08
tplh                =  8.67468e-10 targ=  9.56511e-08 trig=  9.47836e-08
i_vdd_avg           =  -9.73999e-07 from=  1.00000e-08 to=  3.30002e-07
power_avg_uw        =  1.87286e+00


Total analysis time (seconds) = 3.12824

Total elapsed time (seconds) = 3.200 

Total DRAM available = 16384.000 MB.
DRAM currently available =  114.406 MB.
Maximum ngspice program size =   17.438 MB.
Current ngspice program size =   17.438 MB.

