
Note: No compatibility mode selected!


Circuit: GF180MCU library cell nor2_4 A1_to_ZN__A2=0

Doing analysis at TEMP = 74.797345 and TNOM = 27.000000

Using SPARSE 1.3 as Direct Linear Solver

Initial Transient Solution
--------------------------

Node                                   Voltage
----                                   -------
vdd                                    1.92581
a1                                           0
a2                                           0
zn                                      1.9258
xu1.net_0_0                             1.9258
xu1.net_0_1                             1.9258
xu1.net_0_2                             1.9258
xu1.net_0_3                             1.9258
vfix_a2#branch                               0
vin#branch                                   0
vdd#branch                        -2.04025e-10

 Reference value :  2.78425e-08
 Reference value :  7.11207e-08
 Reference value :  1.12594e-07
 Reference value :  1.55594e-07
 Reference value :  1.98121e-07
 Reference value :  2.41396e-07
 Reference value :  2.86469e-07
 Reference value :  3.27439e-07
No. of Data Rows : 68034

  Measurements for Transient Analysis

tphl                =  1.24183e-09 targ=  2.90434e-08 trig=  2.78016e-08
tplh                =  3.25407e-09 targ=  1.08659e-07 trig=  1.05405e-07
i_vdd_avg           =  -1.99251e-06 from=  1.00000e-08 to=  3.30004e-07
power_avg_uw        =  3.83719e+00


Total analysis time (seconds) = 2.26732

Total elapsed time (seconds) = 2.348 

Total DRAM available = 16384.000 MB.
DRAM currently available =  204.641 MB.
Maximum ngspice program size =   19.016 MB.
Current ngspice program size =   19.016 MB.

