
Note: No compatibility mode selected!


Circuit: GF180MCU library cell nor2_4 A1_to_ZN__A2=0

Doing analysis at TEMP = -29.168867 and TNOM = 27.000000

Using SPARSE 1.3 as Direct Linear Solver

Initial Transient Solution
--------------------------

Node                                   Voltage
----                                   -------
vdd                                    1.65382
a1                                           0
a2                                           0
zn                                     1.65382
xu1.net_0_0                            1.65382
xu1.net_0_1                            1.65382
xu1.net_0_2                            1.65382
xu1.net_0_3                            1.65382
vfix_a2#branch                               0
vin#branch                                   0
vdd#branch                        -1.33772e-11

 Reference value :  3.27024e-08
 Reference value :  8.07474e-08
 Reference value :  1.23077e-07
 Reference value :  1.67767e-07
 Reference value :  2.16647e-07
 Reference value :  2.62532e-07
 Reference value :  3.04502e-07
No. of Data Rows : 68032

  Measurements for Transient Analysis

tphl                =  3.16977e-10 targ=  2.47994e-08 trig=  2.44825e-08
tplh                =  6.61060e-10 targ=  9.61084e-08 trig=  9.54474e-08
i_vdd_avg           =  -3.50856e-07 from=  1.00000e-08 to=  3.30002e-07
power_avg_uw        =  5.80252e-01


Total analysis time (seconds) = 2.1781

Total elapsed time (seconds) = 2.260 

Total DRAM available = 16384.000 MB.
DRAM currently available =  114.406 MB.
Maximum ngspice program size =   17.766 MB.
Current ngspice program size =   17.766 MB.

