
Note: No compatibility mode selected!


Circuit: GF180MCU library cell aoi21_4 A1_to_ZN__A2=1,B=0

Doing analysis at TEMP = 47.709509 and TNOM = 27.000000

Using SPARSE 1.3 as Direct Linear Solver

Initial Transient Solution
--------------------------

Node                                   Voltage
----                                   -------
vdd                                    1.72009
a1                                           0
a2                                     1.72009
b                                            0
xu1.net_0_0                        2.13031e-08
zn                                     1.72009
xu1.net_0_1                        2.13031e-08
xu1.net_0_2                        2.13031e-08
xu1.net_0_3                        2.13031e-08
xu1.net_1                              1.72009
vfix_b#branch                                0
vfix_a2#branch                               0
vin#branch                                   0
vdd#branch                        -5.19109e-11

 Reference value :  2.01414e-08
 Reference value :  4.95047e-08
 Reference value :  7.96747e-08
 Reference value :  1.11312e-07
 Reference value :  1.41602e-07
 Reference value :  1.73107e-07
 Reference value :  2.02090e-07
 Reference value :  2.32280e-07
 Reference value :  2.61002e-07
 Reference value :  2.89262e-07
 Reference value :  3.18167e-07
No. of Data Rows : 68030

  Measurements for Transient Analysis

tphl                =  9.98146e-10 targ=  2.60368e-08 trig=  2.50386e-08
tplh                =  2.09238e-09 targ=  9.92082e-08 trig=  9.71159e-08
i_vdd_avg           =  -1.38202e-06 from=  1.00000e-08 to=  3.30002e-07
power_avg_uw        =  2.37720e+00


Total analysis time (seconds) = 3.19895

Total elapsed time (seconds) = 3.291 

Total DRAM available = 16384.000 MB.
DRAM currently available =  148.422 MB.
Maximum ngspice program size =   17.625 MB.
Current ngspice program size =   17.625 MB.

