
Note: No compatibility mode selected!


Circuit: GF180MCU library cell inv_4 I_to_ZN

Doing analysis at TEMP = -21.646073 and TNOM = 27.000000

Using SPARSE 1.3 as Direct Linear Solver

Initial Transient Solution
--------------------------

Node                                   Voltage
----                                   -------
vdd                                    1.89618
i                                            0
zn                                     1.89618
vin#branch                                   0
vdd#branch                        -7.69855e-12

 Reference value :  6.41055e-08
 Reference value :  1.50834e-07
 Reference value :  2.40251e-07
 Reference value :  3.20829e-07
No. of Data Rows : 68034

  Measurements for Transient Analysis

tphl                =  -2.10628e-10 targ=  2.91959e-08 trig=  2.94065e-08
tplh                =  1.49080e-09 targ=  1.11710e-07 trig=  1.10220e-07
i_vdd_avg           =  -6.69603e-07 from=  1.00000e-08 to=  3.30004e-07
power_avg_uw        =  1.26969e+00


Total analysis time (seconds) = 1.24269

Total elapsed time (seconds) = 1.313 

Total DRAM available = 16384.000 MB.
DRAM currently available =   84.594 MB.
Maximum ngspice program size =   19.141 MB.
Current ngspice program size =   19.141 MB.

