
Note: No compatibility mode selected!


Circuit: GF180MCU library cell oai21_1 A1_to_ZN__A2=0,B=1

Doing analysis at TEMP = 26.688450 and TNOM = 27.000000

Using SPARSE 1.3 as Direct Linear Solver

Initial Transient Solution
--------------------------

Node                                   Voltage
----                                   -------
vdd                                    1.67685
a1                                           0
a2                                           0
b                                      1.67685
zn                                     1.67685
xu1.net_0                          9.84131e-09
xu1.net_1                              1.67685
vfix_b#branch                                0
vfix_a2#branch                               0
vin#branch                                   0
vdd#branch                        -5.49597e-12

 Reference value :  6.53867e-08
 Reference value :  1.65911e-07
 Reference value :  2.64807e-07
No. of Data Rows : 68032

  Measurements for Transient Analysis

tphl                =  4.49448e-09 targ=  3.28991e-08 trig=  2.84046e-08
tplh                =  9.62980e-09 targ=  1.16844e-07 trig=  1.07214e-07
i_vdd_avg           =  -1.55964e-06 from=  1.00000e-08 to=  3.30001e-07
power_avg_uw        =  2.61530e+00


Total analysis time (seconds) = 0.953859

Total elapsed time (seconds) = 1.035 

Total DRAM available = 16384.000 MB.
DRAM currently available =  170.266 MB.
Maximum ngspice program size =   17.969 MB.
Current ngspice program size =   17.969 MB.

