
Note: No compatibility mode selected!


Circuit: GF180MCU library cell inv_1 I_to_ZN

Doing analysis at TEMP = 25.562684 and TNOM = 27.000000

Using SPARSE 1.3 as Direct Linear Solver

Initial Transient Solution
--------------------------

Node                                   Voltage
----                                   -------
vdd                                    1.68833
i                                            0
zn                                     1.68833
vin#branch                                   0
vdd#branch                        -2.68216e-12

 Reference value :  1.43438e-07
No. of Data Rows : 68032

  Measurements for Transient Analysis

tphl                =  3.43946e-09 targ=  3.26595e-08 trig=  2.92201e-08
tplh                =  6.17211e-09 targ=  1.15832e-07 trig=  1.09660e-07
i_vdd_avg           =  -1.45096e-06 from=  1.00000e-08 to=  3.30003e-07
power_avg_uw        =  2.44969e+00


Total analysis time (seconds) = 0.475903

Total elapsed time (seconds) = 0.545 

Total DRAM available = 16384.000 MB.
DRAM currently available =  166.281 MB.
Maximum ngspice program size =   17.906 MB.
Current ngspice program size =   17.906 MB.

