
Note: No compatibility mode selected!


Circuit: GF180MCU library cell xor2_1 A1_to_Z__A2=0

Doing analysis at TEMP = 104.237420 and TNOM = 27.000000

Using SPARSE 1.3 as Direct Linear Solver

Initial Transient Solution
--------------------------

Node                                   Voltage
----                                   -------
vdd                                    1.78912
a1                                           0
a2                                           0
xu1.i                                   1.7891
z                                  4.72996e-08
xu1.net_0                          2.36106e-08
xu1.net_2                              1.78911
xu1.net_1                             0.517434
vfix_a2#branch                               0
vin#branch                                   0
vdd#branch                        -4.34569e-10

 Reference value :  4.28664e-08
 Reference value :  1.08025e-07
 Reference value :  1.79130e-07
 Reference value :  2.45641e-07
 Reference value :  3.25500e-07
No. of Data Rows : 68032

  Measurements for Transient Analysis

tplh                =  3.82909e-09 targ=  3.06435e-08 trig=  2.68144e-08
tphl                =  2.51981e-09 targ=  1.04963e-07 trig=  1.02443e-07
i_vdd_avg           =  -9.29749e-07 from=  1.00000e-08 to=  3.30000e-07
power_avg_uw        =  1.66343e+00


Total analysis time (seconds) = 1.31423

Total elapsed time (seconds) = 1.402 

Total DRAM available = 16384.000 MB.
DRAM currently available =  253.328 MB.
Maximum ngspice program size =   16.719 MB.
Current ngspice program size =   16.719 MB.

