
Note: No compatibility mode selected!


Circuit: GF180MCU library cell nor2_4 A1_to_ZN__A2=0

Doing analysis at TEMP = 30.070403 and TNOM = 27.000000

Using SPARSE 1.3 as Direct Linear Solver

Initial Transient Solution
--------------------------

Node                                   Voltage
----                                   -------
vdd                                    1.80452
a1                                           0
a2                                           0
zn                                     1.80452
xu1.net_0_0                            1.80452
xu1.net_0_1                            1.80452
xu1.net_0_2                            1.80452
xu1.net_0_3                            1.80452
vfix_a2#branch                               0
vin#branch                                   0
vdd#branch                        -2.64897e-11

 Reference value :  2.98975e-08
 Reference value :  7.29683e-08
 Reference value :  1.16609e-07
 Reference value :  1.58679e-07
 Reference value :  2.00123e-07
 Reference value :  2.49438e-07
 Reference value :  3.06789e-07
No. of Data Rows : 68032

  Measurements for Transient Analysis

tphl                =  1.75826e-09 targ=  3.14061e-08 trig=  2.96479e-08
tplh                =  4.61463e-09 targ=  1.15558e-07 trig=  1.10944e-07
i_vdd_avg           =  -2.18939e-06 from=  1.00000e-08 to=  3.30004e-07
power_avg_uw        =  3.95081e+00


Total analysis time (seconds) = 1.9661

Total elapsed time (seconds) = 2.052 

Total DRAM available = 16384.000 MB.
DRAM currently available =  253.328 MB.
Maximum ngspice program size =   18.734 MB.
Current ngspice program size =   18.734 MB.

