
Note: No compatibility mode selected!


Circuit: GF180MCU library cell oai21_1 A1_to_ZN__A2=0,B=1

Doing analysis at TEMP = -28.728092 and TNOM = 27.000000

Using SPARSE 1.3 as Direct Linear Solver

Initial Transient Solution
--------------------------

Node                                   Voltage
----                                   -------
vdd                                    1.96378
a1                                           0
a2                                           0
b                                      1.96378
zn                                     1.96378
xu1.net_0                          5.92146e-11
xu1.net_1                              1.96378
vfix_b#branch                                0
vfix_a2#branch                               0
vin#branch                                   0
vdd#branch                         -3.9656e-12

 Reference value :  7.61489e-08
 Reference value :  1.92579e-07
 Reference value :  3.05280e-07
No. of Data Rows : 68030

  Measurements for Transient Analysis

tphl                =  3.07798e-09 targ=  2.81962e-08 trig=  2.51182e-08
tplh                =  7.19531e-09 targ=  1.04550e-07 trig=  9.73546e-08
i_vdd_avg           =  -2.44859e-06 from=  1.00000e-08 to=  3.30000e-07
power_avg_uw        =  4.80848e+00


Total analysis time (seconds) = 0.80309

Total elapsed time (seconds) = 0.887 

Total DRAM available = 16384.000 MB.
DRAM currently available =   84.594 MB.
Maximum ngspice program size =   18.578 MB.
Current ngspice program size =   18.578 MB.

