
Note: No compatibility mode selected!


Circuit: GF180MCU library cell inv_1 I_to_ZN

Doing analysis at TEMP = 9.078076 and TNOM = 27.000000

Using SPARSE 1.3 as Direct Linear Solver

Initial Transient Solution
--------------------------

Node                                   Voltage
----                                   -------
vdd                                    1.66541
i                                            0
zn                                     1.66541
vin#branch                                   0
vdd#branch                        -1.94851e-12

 Reference value :  1.77786e-07
No. of Data Rows : 68030

  Measurements for Transient Analysis

tphl                =  3.51115e-09 targ=  3.17221e-08 trig=  2.82110e-08
tplh                =  6.27034e-09 targ=  1.12903e-07 trig=  1.06633e-07
i_vdd_avg           =  -1.67601e-06 from=  1.00000e-08 to=  3.30001e-07
power_avg_uw        =  2.79124e+00


Total analysis time (seconds) = 0.387598

Total elapsed time (seconds) = 0.467 

Total DRAM available = 16384.000 MB.
DRAM currently available =  114.406 MB.
Maximum ngspice program size =   17.031 MB.
Current ngspice program size =   17.031 MB.

