
Note: No compatibility mode selected!


Circuit: GF180MCU library cell oai21_4 A1_to_ZN__A2=0,B=1

Doing analysis at TEMP = 47.345016 and TNOM = 27.000000

Using SPARSE 1.3 as Direct Linear Solver

Initial Transient Solution
--------------------------

Node                                   Voltage
----                                   -------
vdd                                    1.95049
a1                                           0
a2                                           0
b                                      1.95049
zn                                     1.95049
xu1.net_0                          4.04264e-08
xu1.net_1_0                            1.95049
xu1.net_1_1                            1.95049
xu1.net_1_2                            1.95049
xu1.net_1_3                            1.95049
vfix_b#branch                                0
vfix_a2#branch                               0
vin#branch                                   0
vdd#branch                        -5.47655e-11

 Reference value :  1.93164e-08
 Reference value :  5.06013e-08
 Reference value :  7.90363e-08
 Reference value :  1.07276e-07
 Reference value :  1.35290e-07
 Reference value :  1.64340e-07
 Reference value :  1.93051e-07
 Reference value :  2.23051e-07
 Reference value :  2.52736e-07
 Reference value :  2.81925e-07
 Reference value :  3.12590e-07
No. of Data Rows : 68032

  Measurements for Transient Analysis

tphl                =  1.37497e-09 targ=  2.88344e-08 trig=  2.74594e-08
tplh                =  3.39119e-09 targ=  1.07769e-07 trig=  1.04378e-07
i_vdd_avg           =  -2.13893e-06 from=  1.00000e-08 to=  3.30000e-07
power_avg_uw        =  4.17196e+00


Total analysis time (seconds) = 3.26057

Total elapsed time (seconds) = 3.348 

Total DRAM available = 16384.000 MB.
DRAM currently available =  134.312 MB.
Maximum ngspice program size =   17.266 MB.
Current ngspice program size =   17.266 MB.

