
Note: No compatibility mode selected!


Circuit: GF180MCU library cell oai21_1 A1_to_ZN__A2=0,B=1

Doing analysis at TEMP = -11.515020 and TNOM = 27.000000

Using SPARSE 1.3 as Direct Linear Solver

Initial Transient Solution
--------------------------

Node                                   Voltage
----                                   -------
vdd                                    1.88905
a1                                           0
a2                                           0
b                                      1.88905
zn                                     1.88905
xu1.net_0                            3.618e-10
xu1.net_1                              1.88905
vfix_b#branch                                0
vfix_a2#branch                               0
vin#branch                                   0
vdd#branch                         -3.8981e-12

 Reference value :  6.96411e-08
 Reference value :  1.64510e-07
 Reference value :  2.67185e-07
No. of Data Rows : 68034

  Measurements for Transient Analysis

tphl                =  1.92784e-09 targ=  2.60472e-08 trig=  2.41193e-08
tplh                =  4.87543e-09 targ=  9.92334e-08 trig=  9.43580e-08
i_vdd_avg           =  -1.51587e-06 from=  1.00000e-08 to=  3.30005e-07
power_avg_uw        =  2.86356e+00


Total analysis time (seconds) = 0.907111

Total elapsed time (seconds) = 0.986 

Total DRAM available = 16384.000 MB.
DRAM currently available =  224.031 MB.
Maximum ngspice program size =   17.828 MB.
Current ngspice program size =   17.828 MB.

