
Note: No compatibility mode selected!


Circuit: GF180MCU library cell xor2_4 A1_to_Z__A2=0

Doing analysis at TEMP = 14.255388 and TNOM = 27.000000

Using SPARSE 1.3 as Direct Linear Solver

Initial Transient Solution
--------------------------

Node                                   Voltage
----                                   -------
vdd                                    1.75397
a1                                           0
a2                                           0
xu1.net_2                            0.0389415
xu1.i                                  1.75397
xu1.net_0                          3.67803e-09
xu1.z_neg                              1.75397
z                                  7.93155e-09
xu1.net_1                              1.75397
vfix_a2#branch                               0
vin#branch                                   0
vdd#branch                        -1.39574e-11

 Reference value :  2.72925e-08
 Reference value :  6.50662e-08
 Reference value :  1.04996e-07
 Reference value :  1.44265e-07
 Reference value :  1.95471e-07
 Reference value :  2.49846e-07
 Reference value :  3.09605e-07
No. of Data Rows : 68034

  Measurements for Transient Analysis

tplh                =  2.13207e-09 targ=  2.96989e-08 trig=  2.75669e-08
tphl                =  3.13803e-09 targ=  1.07839e-07 trig=  1.04701e-07
i_vdd_avg           =  -2.48038e-06 from=  1.00000e-08 to=  3.30005e-07
power_avg_uw        =  4.35050e+00


Total analysis time (seconds) = 1.89912

Total elapsed time (seconds) = 1.973 

Total DRAM available = 16384.000 MB.
DRAM currently available =  315.047 MB.
Maximum ngspice program size =   16.984 MB.
Current ngspice program size =   16.984 MB.

