
Note: No compatibility mode selected!


Circuit: GF180MCU library cell inv_1 I_to_ZN

Doing analysis at TEMP = 60.688795 and TNOM = 27.000000

Using SPARSE 1.3 as Direct Linear Solver

Initial Transient Solution
--------------------------

Node                                   Voltage
----                                   -------
vdd                                    1.78406
i                                            0
zn                                     1.78406
vin#branch                                   0
vdd#branch                        -1.19288e-11

 Reference value :  1.43488e-07
No. of Data Rows : 68032

  Measurements for Transient Analysis

tphl                =  2.46231e-09 targ=  2.75599e-08 trig=  2.50976e-08
tplh                =  5.09508e-09 targ=  1.02388e-07 trig=  9.72927e-08
i_vdd_avg           =  -2.20690e-06 from=  1.00000e-08 to=  3.30003e-07
power_avg_uw        =  3.93725e+00


Total analysis time (seconds) = 0.404767

Total elapsed time (seconds) = 0.494 

Total DRAM available = 16384.000 MB.
DRAM currently available =  174.375 MB.
Maximum ngspice program size =   17.906 MB.
Current ngspice program size =   17.906 MB.

