
Note: No compatibility mode selected!


Circuit: GF180MCU library cell aoi21_1 A1_to_ZN__A2=1,B=0

Doing analysis at TEMP = -35.036088 and TNOM = 27.000000

Using SPARSE 1.3 as Direct Linear Solver

Initial Transient Solution
--------------------------

Node                                   Voltage
----                                   -------
vdd                                    1.62704
a1                                           0
a2                                     1.62704
b                                            0
xu1.net_0                          1.50764e-11
zn                                     1.62704
xu1.net_1                              1.62704
vfix_b#branch                                0
vfix_a2#branch                               0
vin#branch                                   0
vdd#branch                         -3.2829e-12

 Reference value :  7.26107e-08
 Reference value :  1.84748e-07
 Reference value :  2.84714e-07
No. of Data Rows : 68034

  Measurements for Transient Analysis

tphl                =  3.28569e-10 targ=  2.59601e-08 trig=  2.56316e-08
tplh                =  9.79429e-10 targ=  9.98742e-08 trig=  9.88947e-08
i_vdd_avg           =  -5.02106e-08 from=  1.00000e-08 to=  3.30004e-07
power_avg_uw        =  8.16944e-02


Total analysis time (seconds) = 1.0571

Total elapsed time (seconds) = 1.129 

Total DRAM available = 16384.000 MB.
DRAM currently available =   84.438 MB.
Maximum ngspice program size =   19.281 MB.
Current ngspice program size =   19.281 MB.

