
Note: No compatibility mode selected!


Circuit: GF180MCU library cell inv_1 I_to_ZN

Doing analysis at TEMP = 124.188880 and TNOM = 27.000000

Using SPARSE 1.3 as Direct Linear Solver

Initial Transient Solution
--------------------------

Node                                   Voltage
----                                   -------
vdd                                     1.9582
i                                            0
zn                                      1.9582
vin#branch                                   0
vdd#branch                        -2.43817e-10

 Reference value :  1.79541e-07
No. of Data Rows : 68030

  Measurements for Transient Analysis

tphl                =  3.13775e-10 targ=  2.46821e-08 trig=  2.43683e-08
tplh                =  5.38444e-10 targ=  9.56433e-08 trig=  9.51049e-08
i_vdd_avg           =  -2.12720e-07 from=  1.00000e-08 to=  3.30001e-07
power_avg_uw        =  4.16549e-01


Total analysis time (seconds) = 0.459134

Total elapsed time (seconds) = 0.531 

Total DRAM available = 16384.000 MB.
DRAM currently available =  136.250 MB.
Maximum ngspice program size =   19.453 MB.
Current ngspice program size =   19.453 MB.

