
Note: No compatibility mode selected!


Circuit: GF180MCU library cell aoi21_1 A1_to_ZN__A2=1,B=0

Doing analysis at TEMP = 117.027270 and TNOM = 27.000000

Using SPARSE 1.3 as Direct Linear Solver

Initial Transient Solution
--------------------------

Node                                   Voltage
----                                   -------
vdd                                    1.95061
a1                                           0
a2                                     1.95061
b                                            0
xu1.net_0                          8.80974e-07
zn                                      1.9506
xu1.net_1                              1.95061
vfix_b#branch                                0
vfix_a2#branch                               0
vin#branch                                   0
vdd#branch                        -3.66256e-10

 Reference value :  8.32881e-08
 Reference value :  1.86238e-07
 Reference value :  2.99289e-07
No. of Data Rows : 68032

  Measurements for Transient Analysis

tphl                =  2.37542e-09 targ=  2.92982e-08 trig=  2.69228e-08
tplh                =  4.84839e-09 targ=  1.07617e-07 trig=  1.02768e-07
i_vdd_avg           =  -1.04029e-06 from=  1.00000e-08 to=  3.30004e-07
power_avg_uw        =  2.02920e+00


Total analysis time (seconds) = 0.869142

Total elapsed time (seconds) = 0.952 

Total DRAM available = 16384.000 MB.
DRAM currently available =  114.406 MB.
Maximum ngspice program size =   17.844 MB.
Current ngspice program size =   17.844 MB.

