
Note: No compatibility mode selected!


Circuit: GF180MCU library cell oai21_4 A1_to_ZN__A2=0,B=1

Doing analysis at TEMP = 16.367343 and TNOM = 27.000000

Using SPARSE 1.3 as Direct Linear Solver

Initial Transient Solution
--------------------------

Node                                   Voltage
----                                   -------
vdd                                    1.74111
a1                                           0
a2                                           0
b                                      1.74111
zn                                     1.74111
xu1.net_0                          4.37163e-09
xu1.net_1_0                            1.74111
xu1.net_1_1                            1.74111
xu1.net_1_2                            1.74111
xu1.net_1_3                            1.74111
vfix_b#branch                                0
vfix_a2#branch                               0
vin#branch                                   0
vdd#branch                        -1.80642e-11

 Reference value :  2.15814e-08
 Reference value :  5.16882e-08
 Reference value :  8.17632e-08
 Reference value :  1.10623e-07
 Reference value :  1.38894e-07
 Reference value :  1.67724e-07
 Reference value :  1.95993e-07
 Reference value :  2.25828e-07
 Reference value :  2.54603e-07
 Reference value :  2.83724e-07
 Reference value :  3.11624e-07
No. of Data Rows : 68032

  Measurements for Transient Analysis

tphl                =  2.24470e-09 targ=  3.18526e-08 trig=  2.96079e-08
tplh                =  5.40826e-09 targ=  1.16232e-07 trig=  1.10824e-07
i_vdd_avg           =  -2.32450e-06 from=  1.00000e-08 to=  3.30004e-07
power_avg_uw        =  4.04720e+00


Total analysis time (seconds) = 3.28362

Total elapsed time (seconds) = 3.352 

Total DRAM available = 16384.000 MB.
DRAM currently available =  170.266 MB.
Maximum ngspice program size =   16.219 MB.
Current ngspice program size =   16.219 MB.

