
Note: No compatibility mode selected!


Circuit: INV seed characterization sample 4010040

Doing analysis at TEMP = 14.931500 and TNOM = 27.000000

Using SPARSE 1.3 as Direct Linear Solver

Initial Transient Solution
--------------------------

Node                                   Voltage
----                                   -------
vdd                                     1.9471
in                                           0
out                                     1.9471
vin#branch                                   0
vdd#branch                        -1.96472e-12

 Reference value :  7.00316e-08
No. of Data Rows : 60047

  Measurements for Transient Analysis

tphl                =  2.18825e-10 targ=  2.40846e-09 trig=  2.18964e-09
tplh                =  2.70557e-10 targ=  2.28395e-08 trig=  2.25689e-08
i_vdd_avg           =  -1.96405e-06 from=  5.00000e-09 to=  1.10002e-07
power_avg_uw        =  3.82420e+00


Total analysis time (seconds) = 0.300021

Total elapsed time (seconds) = 0.374 

Total DRAM available = 16384.000 MB.
DRAM currently available =  216.375 MB.
Maximum ngspice program size =   12.562 MB.
Current ngspice program size =   12.188 MB.

