
Note: No compatibility mode selected!


Circuit: NOR2 seed characterization sample 4010018

Doing analysis at TEMP = -2.191880 and TNOM = 27.000000

Using SPARSE 1.3 as Direct Linear Solver

Initial Transient Solution
--------------------------

Node                                   Voltage
----                                   -------
vdd                                    1.72843
in                                           0
out                                    1.72843
pmid                                   1.72843
vin#branch                                   0
vdd#branch                         -3.4781e-12

 Reference value :  4.76141e-08
 Reference value :  1.09833e-07
No. of Data Rows : 60047

  Measurements for Transient Analysis

tphl                =  9.15476e-11 targ=  2.13411e-09 trig=  2.04257e-09
tplh                =  5.02924e-10 targ=  2.26306e-08 trig=  2.21277e-08
i_vdd_avg           =  -9.60650e-07 from=  5.00000e-09 to=  1.10001e-07
power_avg_uw        =  1.66042e+00


Total analysis time (seconds) = 0.466732

Total elapsed time (seconds) = 0.536 

Total DRAM available = 16384.000 MB.
DRAM currently available =  186.797 MB.
Maximum ngspice program size =   12.656 MB.
Current ngspice program size =   11.891 MB.

