
Note: No compatibility mode selected!


Circuit: XOR2 seed characterization sample 4010047

Doing analysis at TEMP = 58.395900 and TNOM = 27.000000

Using SPARSE 1.3 as Direct Linear Solver

Initial Transient Solution
--------------------------

Node                                   Voltage
----                                   -------
vdd                                    1.70824
in                                           0
b                                      1.70824
abar                                   1.70824
bbar                               2.16159e-09
out                                    1.70824
vb#branch                                    0
vin#branch                          2.2909e-12
vdd#branch                        -1.13239e-11

 Reference value :  2.31739e-08
 Reference value :  5.52814e-08
 Reference value :  9.03094e-08
No. of Data Rows : 60044

  Measurements for Transient Analysis

tphl                =  4.84500e-10 targ=  2.57972e-09 trig=  2.09522e-09
tplh                =  4.98319e-10 targ=  2.27840e-08 trig=  2.22857e-08
i_vdd_avg           =  -5.12642e-06 from=  5.00000e-09 to=  1.10002e-07
power_avg_uw        =  8.75716e+00


Total analysis time (seconds) = 0.856691

Total elapsed time (seconds) = 0.934 

Total DRAM available = 16384.000 MB.
DRAM currently available =  202.766 MB.
Maximum ngspice program size =   12.562 MB.
Current ngspice program size =   11.656 MB.

