
Note: No compatibility mode selected!


Circuit: NOR2 seed characterization sample 4010032

Doing analysis at TEMP = 46.894500 and TNOM = 27.000000

Using SPARSE 1.3 as Direct Linear Solver

Initial Transient Solution
--------------------------

Node                                   Voltage
----                                   -------
vdd                                    1.70751
in                                           0
out                                    1.70751
pmid                                   1.70751
vin#branch                                   0
vdd#branch                        -3.77867e-12

 Reference value :  4.00833e-08
 Reference value :  9.44422e-08
No. of Data Rows : 60047

  Measurements for Transient Analysis

tphl                =  2.40358e-10 targ=  2.45894e-09 trig=  2.21859e-09
tplh                =  8.48679e-10 targ=  2.35044e-08 trig=  2.26558e-08
i_vdd_avg           =  -4.24763e-06 from=  5.00000e-09 to=  1.10001e-07
power_avg_uw        =  7.25287e+00


Total analysis time (seconds) = 0.537581

Total elapsed time (seconds) = 0.615 

Total DRAM available = 16384.000 MB.
DRAM currently available =  192.594 MB.
Maximum ngspice program size =   13.359 MB.
Current ngspice program size =   12.391 MB.

