
Note: No compatibility mode selected!


Circuit: NAND2 seed characterization sample 4010033

Doing analysis at TEMP = 44.570000 and TNOM = 27.000000

Using SPARSE 1.3 as Direct Linear Solver

Initial Transient Solution
--------------------------

Node                                   Voltage
----                                   -------
vdd                                     1.8405
in                                           0
out                                     1.8405
nmid                                 0.0212717
vin#branch                                   0
vdd#branch                        -1.91996e-12

 Reference value :  4.49290e-08
 Reference value :  1.01153e-07
No. of Data Rows : 60044

  Measurements for Transient Analysis

tphl                =  1.67422e-10 targ=  2.20843e-09 trig=  2.04101e-09
tplh                =  7.64157e-11 targ=  2.21994e-08 trig=  2.21230e-08
i_vdd_avg           =  -1.42363e-06 from=  5.00000e-09 to=  1.10001e-07
power_avg_uw        =  2.62020e+00


Total analysis time (seconds) = 0.506795

Total elapsed time (seconds) = 0.581 

Total DRAM available = 16384.000 MB.
DRAM currently available =  212.828 MB.
Maximum ngspice program size =   12.562 MB.
Current ngspice program size =   11.812 MB.

