
Note: No compatibility mode selected!


Circuit: INV seed characterization sample 4010015

Doing analysis at TEMP = 91.551200 and TNOM = 27.000000

Using SPARSE 1.3 as Direct Linear Solver

Initial Transient Solution
--------------------------

Node                                   Voltage
----                                   -------
vdd                                     1.9644
in                                           0
out                                     1.9644
vin#branch                                   0
vdd#branch                        -6.06925e-12

 Reference value :  6.63691e-08
No. of Data Rows : 60044

  Measurements for Transient Analysis

tphl                =  1.50092e-10 targ=  2.21511e-09 trig=  2.06502e-09
tplh                =  2.34460e-10 targ=  2.24295e-08 trig=  2.21951e-08
i_vdd_avg           =  -2.48587e-06 from=  5.00000e-09 to=  1.10001e-07
power_avg_uw        =  4.88325e+00


Total analysis time (seconds) = 0.305688

Total elapsed time (seconds) = 0.384 

Total DRAM available = 16384.000 MB.
DRAM currently available =  200.969 MB.
Maximum ngspice program size =   13.172 MB.
Current ngspice program size =   12.781 MB.

