
Note: No compatibility mode selected!


Circuit: NAND2 seed characterization sample 4010034

Doing analysis at TEMP = 21.601400 and TNOM = 27.000000

Using SPARSE 1.3 as Direct Linear Solver

Initial Transient Solution
--------------------------

Node                                   Voltage
----                                   -------
vdd                                    1.63196
in                                           0
out                                    1.63196
nmid                                0.00373011
vin#branch                                   0
vdd#branch                        -1.65244e-12

 Reference value :  4.56138e-08
 Reference value :  1.00724e-07
No. of Data Rows : 60041

  Measurements for Transient Analysis

tphl                =  4.21952e-10 targ=  2.48134e-09 trig=  2.05939e-09
tplh                =  1.48110e-10 targ=  2.23263e-08 trig=  2.21782e-08
i_vdd_avg           =  -2.17472e-06 from=  5.00000e-09 to=  1.10001e-07
power_avg_uw        =  3.54906e+00


Total analysis time (seconds) = 0.512513

Total elapsed time (seconds) = 0.585 

Total DRAM available = 16384.000 MB.
DRAM currently available =  212.828 MB.
Maximum ngspice program size =   12.609 MB.
Current ngspice program size =   11.859 MB.

