
Note: No compatibility mode selected!


Circuit: NAND2 seed characterization sample 4010035

Doing analysis at TEMP = 46.175600 and TNOM = 27.000000

Using SPARSE 1.3 as Direct Linear Solver

Initial Transient Solution
--------------------------

Node                                   Voltage
----                                   -------
vdd                                    1.71196
in                                           0
out                                    1.71196
nmid                                 0.0181387
vin#branch                                   0
vdd#branch                        -1.77944e-12

 Reference value :  4.52647e-08
 Reference value :  1.01371e-07
No. of Data Rows : 60044

  Measurements for Transient Analysis

tphl                =  3.56714e-10 targ=  2.57754e-09 trig=  2.22083e-09
tplh                =  2.16690e-10 targ=  2.28792e-08 trig=  2.26625e-08
i_vdd_avg           =  -1.50824e-06 from=  5.00000e-09 to=  1.10000e-07
power_avg_uw        =  2.58204e+00


Total analysis time (seconds) = 0.507093

Total elapsed time (seconds) = 0.581 

Total DRAM available = 16384.000 MB.
DRAM currently available =  212.828 MB.
Maximum ngspice program size =   12.562 MB.
Current ngspice program size =   11.844 MB.

