
Note: No compatibility mode selected!


Circuit: NOR2 seed characterization sample 4010048

Doing analysis at TEMP = 84.001800 and TNOM = 27.000000

Using SPARSE 1.3 as Direct Linear Solver

Initial Transient Solution
--------------------------

Node                                   Voltage
----                                   -------
vdd                                    1.87973
in                                           0
out                                    1.87973
pmid                                   1.87973
vin#branch                                   0
vdd#branch                        -1.32993e-11

 Reference value :  3.99668e-08
 Reference value :  9.52279e-08
No. of Data Rows : 60041

  Measurements for Transient Analysis

tphl                =  8.73498e-11 targ=  2.25781e-09 trig=  2.17046e-09
tplh                =  2.46288e-10 targ=  2.27577e-08 trig=  2.25114e-08
i_vdd_avg           =  -1.94439e-06 from=  5.00000e-09 to=  1.10001e-07
power_avg_uw        =  3.65492e+00


Total analysis time (seconds) = 0.519269

Total elapsed time (seconds) = 0.596 

Total DRAM available = 16384.000 MB.
DRAM currently available =  202.766 MB.
Maximum ngspice program size =   12.562 MB.
Current ngspice program size =   11.906 MB.

