
Note: No compatibility mode selected!


Circuit: XOR2 seed characterization sample 4010017

Doing analysis at TEMP = 97.500900 and TNOM = 27.000000

Using SPARSE 1.3 as Direct Linear Solver

Initial Transient Solution
--------------------------

Node                                   Voltage
----                                   -------
vdd                                    1.85338
in                                           0
b                                      1.85338
abar                                   1.85338
bbar                               8.24934e-09
out                                    1.85338
vb#branch                                    0
vin#branch                         3.93597e-12
vdd#branch                        -1.50364e-11

 Reference value :  2.73137e-08
 Reference value :  6.33037e-08
 Reference value :  1.00115e-07
No. of Data Rows : 60044

  Measurements for Transient Analysis

tphl                =  5.60775e-10 targ=  2.69295e-09 trig=  2.13218e-09
tplh                =  8.31742e-10 targ=  2.32283e-08 trig=  2.23965e-08
i_vdd_avg           =  -2.14079e-06 from=  5.00000e-09 to=  1.10002e-07
power_avg_uw        =  3.96769e+00


Total analysis time (seconds) = 0.794726

Total elapsed time (seconds) = 0.865 

Total DRAM available = 16384.000 MB.
DRAM currently available =  205.062 MB.
Maximum ngspice program size =   12.578 MB.
Current ngspice program size =   12.328 MB.

