
Note: No compatibility mode selected!


Circuit: NOR2 seed characterization sample 4010027

Doing analysis at TEMP = 17.248100 and TNOM = 27.000000

Using SPARSE 1.3 as Direct Linear Solver

Initial Transient Solution
--------------------------

Node                                   Voltage
----                                   -------
vdd                                    1.80479
in                                           0
out                                    1.80479
pmid                                   1.80479
vin#branch                                   0
vdd#branch                        -3.67341e-12

 Reference value :  3.89139e-08
 Reference value :  9.08554e-08
No. of Data Rows : 60044

  Measurements for Transient Analysis

tphl                =  1.55002e-10 targ=  2.28522e-09 trig=  2.13022e-09
tplh                =  6.83678e-10 targ=  2.30743e-08 trig=  2.23907e-08
i_vdd_avg           =  -4.95128e-06 from=  5.00000e-09 to=  1.10002e-07
power_avg_uw        =  8.93601e+00


Total analysis time (seconds) = 0.557061

Total elapsed time (seconds) = 0.634 

Total DRAM available = 16384.000 MB.
DRAM currently available =  201.875 MB.
Maximum ngspice program size =   12.562 MB.
Current ngspice program size =   11.688 MB.

