
Note: No compatibility mode selected!


Circuit: NAND2 seed characterization sample 4010005

Doing analysis at TEMP = 88.913200 and TNOM = 27.000000

Using SPARSE 1.3 as Direct Linear Solver

Initial Transient Solution
--------------------------

Node                                   Voltage
----                                   -------
vdd                                    1.88439
in                                           0
out                                    1.88439
nmid                                 0.0476577
vin#branch                                   0
vdd#branch                        -2.72307e-12

 Reference value :  3.21538e-08
 Reference value :  7.60158e-08
 Reference value :  1.15122e-07
No. of Data Rows : 60044

  Measurements for Transient Analysis

tphl                =  2.41938e-10 targ=  2.35414e-09 trig=  2.11220e-09
tplh                =  1.51756e-10 targ=  2.24884e-08 trig=  2.23366e-08
i_vdd_avg           =  -2.02616e-06 from=  5.00000e-09 to=  1.10002e-07
power_avg_uw        =  3.81808e+00


Total analysis time (seconds) = 0.794704

Total elapsed time (seconds) = 0.873 

Total DRAM available = 16384.000 MB.
DRAM currently available =  180.078 MB.
Maximum ngspice program size =   12.766 MB.
Current ngspice program size =   12.766 MB.

