
Note: No compatibility mode selected!


Circuit: GF180MCU library cell mux2_1 I0_to_Z__I1=0,S=0

Doing analysis at TEMP = -10.749703 and TNOM = 27.000000

Using SPARSE 1.3 as Direct Linear Solver

Initial Transient Solution
--------------------------

Node                                   Voltage
----                                   -------
vdd                                    1.67808
i0                                           0
i1                                           0
s                                            0
xu1.int04                              1.67808
z                                  1.40213e-08
xu1.net_1                          0.000145315
xu1.net_3                              1.03958
xu1.sel1_n                             1.67808
xu1.net_0                              1.67808
xu1.net_2                              1.67808
vfix_s#branch                                0
vfix_i1#branch                               0
vin#branch                                   0
vdd#branch                        -8.91924e-12

 Reference value :  4.14915e-08
 Reference value :  1.05947e-07
 Reference value :  1.61086e-07
 Reference value :  2.21057e-07
 Reference value :  2.76446e-07
 Reference value :  3.31836e-07
No. of Data Rows : 68032

  Measurements for Transient Analysis

tplh                =  4.55040e-09 targ=  3.36574e-08 trig=  2.91070e-08
tphl                =  5.88905e-09 targ=  1.15210e-07 trig=  1.09321e-07
i_vdd_avg           =  -4.05502e-07 from=  1.00000e-08 to=  3.30001e-07
power_avg_uw        =  6.80467e-01


Total analysis time (seconds) = 1.61001

Total elapsed time (seconds) = 1.681 

Total DRAM available = 16384.000 MB.
DRAM currently available =  227.203 MB.
Maximum ngspice program size =   18.062 MB.
Current ngspice program size =   18.062 MB.

