
Note: No compatibility mode selected!


Circuit: GF180MCU library cell nand2_4 A1_to_ZN__A2=1

Doing analysis at TEMP = 43.128585 and TNOM = 27.000000

Using SPARSE 1.3 as Direct Linear Solver

Initial Transient Solution
--------------------------

Node                                   Voltage
----                                   -------
vdd                                    1.94923
a1                                           0
a2                                     1.94923
xu1.net_0_0                        4.87542e-11
zn                                     1.94923
xu1.net_0_1                        4.87542e-11
xu1.net_0_2                        4.87542e-11
xu1.net_0_3                        4.87542e-11
vfix_a2#branch                               0
vin#branch                                   0
vdd#branch                        -7.86315e-12

 Reference value :  2.59375e-08
 Reference value :  6.83853e-08
 Reference value :  1.11573e-07
 Reference value :  1.54003e-07
 Reference value :  1.94985e-07
 Reference value :  2.38300e-07
 Reference value :  2.80658e-07
 Reference value :  3.23653e-07
No. of Data Rows : 68034

  Measurements for Transient Analysis

tphl                =  2.58398e-09 targ=  2.83954e-08 trig=  2.58114e-08
tplh                =  3.60641e-09 targ=  1.03041e-07 trig=  9.94342e-08
i_vdd_avg           =  -2.39756e-06 from=  1.00000e-08 to=  3.30003e-07
power_avg_uw        =  4.67341e+00


Total analysis time (seconds) = 2.27469

Total elapsed time (seconds) = 2.355 

Total DRAM available = 16384.000 MB.
DRAM currently available =  107.797 MB.
Maximum ngspice program size =   17.438 MB.
Current ngspice program size =   17.438 MB.

