
Note: No compatibility mode selected!


Circuit: GF180MCU library cell oai21_1 A1_to_ZN__A2=0,B=1

Doing analysis at TEMP = 82.587150 and TNOM = 27.000000

Using SPARSE 1.3 as Direct Linear Solver

Initial Transient Solution
--------------------------

Node                                   Voltage
----                                   -------
vdd                                    1.92826
a1                                           0
a2                                           0
b                                      1.92826
zn                                     1.92826
xu1.net_0                          1.96301e-09
xu1.net_1                              1.92826
vfix_b#branch                                0
vfix_a2#branch                               0
vin#branch                                   0
vdd#branch                        -4.10997e-12

 Reference value :  6.70158e-08
 Reference value :  1.68319e-07
 Reference value :  2.64686e-07
No. of Data Rows : 68034

  Measurements for Transient Analysis

tphl                =  4.96663e-09 targ=  3.40658e-08 trig=  2.90992e-08
tplh                =  9.95702e-09 targ=  1.19254e-07 trig=  1.09297e-07
i_vdd_avg           =  -8.36998e-07 from=  1.00000e-08 to=  3.30004e-07
power_avg_uw        =  1.61395e+00


Total analysis time (seconds) = 1.0796

Total elapsed time (seconds) = 1.181 

Total DRAM available = 16384.000 MB.
DRAM currently available =  227.234 MB.
Maximum ngspice program size =   17.938 MB.
Current ngspice program size =   17.938 MB.

