
Note: No compatibility mode selected!


Circuit: GF180MCU library cell inv_4 I_to_ZN

Doing analysis at TEMP = 101.775190 and TNOM = 27.000000

Using SPARSE 1.3 as Direct Linear Solver

Initial Transient Solution
--------------------------

Node                                   Voltage
----                                   -------
vdd                                    1.71799
i                                            0
zn                                     1.71799
vin#branch                                   0
vdd#branch                        -8.32219e-12

 Reference value :  5.51914e-08
 Reference value :  1.33005e-07
 Reference value :  2.17611e-07
 Reference value :  2.99990e-07
No. of Data Rows : 68032

  Measurements for Transient Analysis

tphl                =  1.98841e-09 targ=  2.84478e-08 trig=  2.64594e-08
tplh                =  3.32117e-09 targ=  1.04699e-07 trig=  1.01378e-07
i_vdd_avg           =  -1.15907e-06 from=  1.00000e-08 to=  3.30000e-07
power_avg_uw        =  1.99127e+00


Total analysis time (seconds) = 1.13952

Total elapsed time (seconds) = 1.231 

Total DRAM available = 16384.000 MB.
DRAM currently available =  120.984 MB.
Maximum ngspice program size =   19.016 MB.
Current ngspice program size =   19.016 MB.

