
Note: No compatibility mode selected!


Circuit: GF180MCU library cell mux2_4 I0_to_Z__I1=0,S=0

Doing analysis at TEMP = 97.630316 and TNOM = 27.000000

Using SPARSE 1.3 as Direct Linear Solver

Initial Transient Solution
--------------------------

Node                                   Voltage
----                                   -------
vdd                                    1.72298
i0                                           0
i1                                           0
s                                            0
xu1.int04                              1.72298
z                                  1.85182e-08
xu1.net_1                            0.0253479
xu1.net_3                              1.15774
xu1.sel1_n                             1.72298
xu1.net_0                              1.72298
xu1.net_2                              1.72298
vfix_s#branch                                0
vfix_i1#branch                               0
vin#branch                                   0
vdd#branch                        -1.53803e-11

 Reference value :  2.53775e-08
 Reference value :  6.22224e-08
 Reference value :  9.99524e-08
 Reference value :  1.36352e-07
 Reference value :  1.72787e-07
 Reference value :  2.11682e-07
 Reference value :  2.48572e-07
 Reference value :  2.86782e-07
 Reference value :  3.24647e-07
No. of Data Rows : 68032

  Measurements for Transient Analysis

tplh                =  5.62905e-09 targ=  3.36865e-08 trig=  2.80575e-08
tphl                =  6.38555e-09 targ=  1.12558e-07 trig=  1.06172e-07
i_vdd_avg           =  -2.01349e-06 from=  1.00000e-08 to=  3.30002e-07
power_avg_uw        =  3.46920e+00


Total analysis time (seconds) = 2.71784

Total elapsed time (seconds) = 2.796 

Total DRAM available = 16384.000 MB.
DRAM currently available =  102.188 MB.
Maximum ngspice program size =   19.016 MB.
Current ngspice program size =   19.016 MB.

