
Note: No compatibility mode selected!


Circuit: GF180MCU library cell inv_1 I_to_ZN

Doing analysis at TEMP = 59.826153 and TNOM = 27.000000

Using SPARSE 1.3 as Direct Linear Solver

Initial Transient Solution
--------------------------

Node                                   Voltage
----                                   -------
vdd                                    1.75445
i                                            0
zn                                     1.75445
vin#branch                                   0
vdd#branch                        -1.78686e-12

 Reference value :  1.60450e-07
No. of Data Rows : 68032

  Measurements for Transient Analysis

tphl                =  2.87787e-09 targ=  2.77584e-08 trig=  2.48805e-08
tplh                =  6.75367e-09 targ=  1.03395e-07 trig=  9.66415e-08
i_vdd_avg           =  -1.10716e-06 from=  1.00000e-08 to=  3.30005e-07
power_avg_uw        =  1.94245e+00


Total analysis time (seconds) = 0.411407

Total elapsed time (seconds) = 0.481 

Total DRAM available = 16384.000 MB.
DRAM currently available =  246.250 MB.
Maximum ngspice program size =   15.859 MB.
Current ngspice program size =   15.859 MB.

