
Note: No compatibility mode selected!


Circuit: GF180MCU library cell nor2_4 A1_to_ZN__A2=0

Doing analysis at TEMP = 113.325210 and TNOM = 27.000000

Using SPARSE 1.3 as Direct Linear Solver

Initial Transient Solution
--------------------------

Node                                   Voltage
----                                   -------
vdd                                    1.82989
a1                                           0
a2                                           0
zn                                     1.82989
xu1.net_0_0                            1.82989
xu1.net_0_1                            1.82989
xu1.net_0_2                            1.82989
xu1.net_0_3                            1.82989
vfix_a2#branch                               0
vin#branch                                   0
vdd#branch                        -2.05341e-11

 Reference value :  2.91675e-08
 Reference value :  7.02679e-08
 Reference value :  1.13073e-07
 Reference value :  1.54623e-07
 Reference value :  1.95388e-07
 Reference value :  2.40693e-07
 Reference value :  2.84583e-07
 Reference value :  3.28488e-07
No. of Data Rows : 68032

  Measurements for Transient Analysis

tphl                =  3.90244e-09 targ=  3.22551e-08 trig=  2.83527e-08
tplh                =  8.50622e-09 targ=  1.15564e-07 trig=  1.07058e-07
i_vdd_avg           =  -2.35072e-06 from=  1.00000e-08 to=  3.30003e-07
power_avg_uw        =  4.30157e+00


Total analysis time (seconds) = 2.36236

Total elapsed time (seconds) = 2.457 

Total DRAM available = 16384.000 MB.
DRAM currently available =  102.188 MB.
Maximum ngspice program size =   18.047 MB.
Current ngspice program size =   18.047 MB.

