
Note: No compatibility mode selected!


Circuit: GF180MCU library cell oai21_4 A1_to_ZN__A2=0,B=1

Doing analysis at TEMP = 40.596705 and TNOM = 27.000000

Using SPARSE 1.3 as Direct Linear Solver

Initial Transient Solution
--------------------------

Node                                   Voltage
----                                   -------
vdd                                    1.88406
a1                                           0
a2                                           0
b                                      1.88406
zn                                     1.88406
xu1.net_0                          8.03206e-11
xu1.net_1_0                            1.88406
xu1.net_1_1                            1.88406
xu1.net_1_2                            1.88406
xu1.net_1_3                            1.88406
vfix_b#branch                                0
vfix_a2#branch                               0
vin#branch                                   0
vdd#branch                        -1.51939e-11

 Reference value :  1.85614e-08
 Reference value :  4.73655e-08
 Reference value :  7.72155e-08
 Reference value :  1.06833e-07
 Reference value :  1.35058e-07
 Reference value :  1.64003e-07
 Reference value :  1.94300e-07
 Reference value :  2.23090e-07
 Reference value :  2.51285e-07
 Reference value :  2.80158e-07
 Reference value :  3.11863e-07
 Reference value :  3.39773e-07
No. of Data Rows : 68034

  Measurements for Transient Analysis

tphl                =  2.04796e-09 targ=  2.66144e-08 trig=  2.45665e-08
tplh                =  5.97809e-09 targ=  1.01678e-07 trig=  9.56994e-08
i_vdd_avg           =  -2.23629e-06 from=  1.00000e-08 to=  3.30003e-07
power_avg_uw        =  4.21330e+00


Total analysis time (seconds) = 3.32456

Total elapsed time (seconds) = 3.511 

Total DRAM available = 16384.000 MB.
DRAM currently available =   91.141 MB.
Maximum ngspice program size =   19.125 MB.
Current ngspice program size =   19.125 MB.

