
Note: No compatibility mode selected!


Circuit: GF180MCU library cell inv_1 I_to_ZN

Doing analysis at TEMP = -1.239437 and TNOM = 27.000000

Using SPARSE 1.3 as Direct Linear Solver

Initial Transient Solution
--------------------------

Node                                   Voltage
----                                   -------
vdd                                    1.82796
i                                            0
zn                                     1.82796
vin#branch                                   0
vdd#branch                        -1.83805e-12

 Reference value :  1.43338e-07
No. of Data Rows : 68034

  Measurements for Transient Analysis

tphl                =  3.08809e-09 targ=  2.81770e-08 trig=  2.50889e-08
tplh                =  7.03620e-09 targ=  1.04303e-07 trig=  9.72668e-08
i_vdd_avg           =  -1.38593e-06 from=  1.00000e-08 to=  3.30003e-07
power_avg_uw        =  2.53342e+00


Total analysis time (seconds) = 0.438878

Total elapsed time (seconds) = 0.515 

Total DRAM available = 16384.000 MB.
DRAM currently available =  102.188 MB.
Maximum ngspice program size =   17.516 MB.
Current ngspice program size =   17.516 MB.

