
Note: No compatibility mode selected!


Circuit: GF180MCU library cell aoi21_1 A1_to_ZN__A2=1,B=0

Doing analysis at TEMP = 62.646889 and TNOM = 27.000000

Using SPARSE 1.3 as Direct Linear Solver

Initial Transient Solution
--------------------------

Node                                   Voltage
----                                   -------
vdd                                    1.96225
a1                                           0
a2                                     1.96225
b                                            0
xu1.net_0                          2.32841e-10
zn                                     1.96225
xu1.net_1                              1.96225
vfix_b#branch                                0
vfix_a2#branch                               0
vin#branch                                   0
vdd#branch                        -4.01279e-12

 Reference value :  7.62211e-08
 Reference value :  1.82320e-07
 Reference value :  2.86460e-07
No. of Data Rows : 68034

  Measurements for Transient Analysis

tphl                =  2.34387e-09 targ=  2.70156e-08 trig=  2.46718e-08
tplh                =  5.95074e-09 targ=  1.01966e-07 trig=  9.60153e-08
i_vdd_avg           =  -6.95650e-07 from=  1.00000e-08 to=  3.30005e-07
power_avg_uw        =  1.36504e+00


Total analysis time (seconds) = 0.861595

Total elapsed time (seconds) = 0.929 

Total DRAM available = 16384.000 MB.
DRAM currently available =  123.156 MB.
Maximum ngspice program size =   14.703 MB.
Current ngspice program size =   14.703 MB.

