
Note: No compatibility mode selected!


Circuit: GF180MCU library cell nand3_4 A1_to_ZN__A2=1,A3=1

Doing analysis at TEMP = -16.382602 and TNOM = 27.000000

Using SPARSE 1.3 as Direct Linear Solver

Initial Transient Solution
--------------------------

Node                                   Voltage
----                                   -------
vdd                                    1.71962
a1                                           0
a2                                     1.71962
a3                                     1.71962
xu1.net_1_3                        1.07197e-13
xu1.net_0                          2.14453e-13
xu1.net_1_2                         1.0725e-13
xu1.net_1_1                        1.07197e-13
xu1.net_1_0                        1.07226e-13
xu1.net_0_0                        2.14452e-13
zn                                     1.71962
vfix_a3#branch                               0
vfix_a2#branch                               0
vin#branch                                   0
vdd#branch                        -6.91855e-12

 Reference value :  2.12914e-08
 Reference value :  5.10093e-08
 Reference value :  7.73093e-08
 Reference value :  1.06466e-07
 Reference value :  1.36081e-07
 Reference value :  1.65756e-07
 Reference value :  1.93854e-07
 Reference value :  2.22924e-07
 Reference value :  2.51294e-07
 Reference value :  2.80731e-07
 Reference value :  3.10211e-07
 Reference value :  3.39071e-07
No. of Data Rows : 68030

  Measurements for Transient Analysis

tphl                =  4.11258e-09 targ=  3.12185e-08 trig=  2.71059e-08
tplh                =  5.36184e-09 targ=  1.08680e-07 trig=  1.03318e-07
i_vdd_avg           =  -1.77645e-06 from=  1.00000e-08 to=  3.30001e-07
power_avg_uw        =  3.05482e+00


Total analysis time (seconds) = 3.24977

Total elapsed time (seconds) = 3.341 

Total DRAM available = 16384.000 MB.
DRAM currently available =  239.250 MB.
Maximum ngspice program size =   18.609 MB.
Current ngspice program size =   18.609 MB.

