
Note: No compatibility mode selected!


Circuit: GF180MCU library cell inv_4 I_to_ZN

Doing analysis at TEMP = 22.718201 and TNOM = 27.000000

Using SPARSE 1.3 as Direct Linear Solver

Initial Transient Solution
--------------------------

Node                                   Voltage
----                                   -------
vdd                                    1.76047
i                                            0
zn                                     1.76047
vin#branch                                   0
vdd#branch                        -7.08591e-12

 Reference value :  5.18377e-08
 Reference value :  1.26643e-07
 Reference value :  2.04623e-07
 Reference value :  2.83153e-07
No. of Data Rows : 68032

  Measurements for Transient Analysis

tphl                =  3.29399e-09 targ=  3.29466e-08 trig=  2.96526e-08
tplh                =  5.58557e-09 targ=  1.16543e-07 trig=  1.10958e-07
i_vdd_avg           =  -1.35416e-06 from=  1.00000e-08 to=  3.30003e-07
power_avg_uw        =  2.38396e+00


Total analysis time (seconds) = 1.36406

Total elapsed time (seconds) = 1.445 

Total DRAM available = 16384.000 MB.
DRAM currently available =  112.031 MB.
Maximum ngspice program size =   17.859 MB.
Current ngspice program size =   17.859 MB.

