
Note: No compatibility mode selected!


Circuit: GF180MCU library cell mux2_4 I0_to_Z__I1=0,S=0

Doing analysis at TEMP = 46.495948 and TNOM = 27.000000

Using SPARSE 1.3 as Direct Linear Solver

Initial Transient Solution
--------------------------

Node                                   Voltage
----                                   -------
vdd                                    1.63443
i0                                           0
i1                                           0
s                                            0
xu1.int04                              1.63443
z                                     1.68e-08
xu1.net_1                           0.00250933
xu1.net_3                              1.00571
xu1.sel1_n                             1.63443
xu1.net_0                              1.63443
xu1.net_2                              1.63443
vfix_s#branch                                0
vfix_i1#branch                               0
vin#branch                                   0
vdd#branch                        -1.38188e-11

 Reference value :  2.63475e-08
 Reference value :  6.60116e-08
 Reference value :  1.02937e-07
 Reference value :  1.41251e-07
 Reference value :  1.77071e-07
 Reference value :  2.13417e-07
 Reference value :  2.48847e-07
 Reference value :  2.87341e-07
 Reference value :  3.22711e-07
No. of Data Rows : 68032

  Measurements for Transient Analysis

tplh                =  5.59080e-09 targ=  3.54403e-08 trig=  2.98495e-08
tphl                =  7.48405e-09 targ=  1.19033e-07 trig=  1.11549e-07
i_vdd_avg           =  -1.10087e-06 from=  1.00000e-08 to=  3.30001e-07
power_avg_uw        =  1.79929e+00


Total analysis time (seconds) = 2.67641

Total elapsed time (seconds) = 2.756 

Total DRAM available = 16384.000 MB.
DRAM currently available =  217.172 MB.
Maximum ngspice program size =   16.719 MB.
Current ngspice program size =   16.719 MB.

