
Note: No compatibility mode selected!


Circuit: GF180MCU library cell nand3_4 A1_to_ZN__A2=1,A3=1

Doing analysis at TEMP = -5.138647 and TNOM = 27.000000

Using SPARSE 1.3 as Direct Linear Solver

Initial Transient Solution
--------------------------

Node                                   Voltage
----                                   -------
vdd                                    1.66222
a1                                           0
a2                                     1.66222
a3                                     1.66222
xu1.net_1_3                        4.41555e-13
xu1.net_0                          8.83073e-13
xu1.net_1_2                        4.41511e-13
xu1.net_1_1                        4.41555e-13
xu1.net_1_0                        4.41541e-13
xu1.net_0_0                        8.83081e-13
zn                                     1.66222
vfix_a3#branch                               0
vfix_a2#branch                               0
vin#branch                                   0
vdd#branch                        -6.68908e-12

 Reference value :  1.86064e-08
 Reference value :  4.60209e-08
 Reference value :  7.52659e-08
 Reference value :  1.04789e-07
 Reference value :  1.33399e-07
 Reference value :  1.64489e-07
 Reference value :  1.95716e-07
 Reference value :  2.30846e-07
 Reference value :  2.72619e-07
 Reference value :  3.16999e-07
No. of Data Rows : 68034

  Measurements for Transient Analysis

tphl                =  3.30612e-09 targ=  2.95403e-08 trig=  2.62342e-08
tplh                =  4.33629e-09 targ=  1.05039e-07 trig=  1.00703e-07
i_vdd_avg           =  -1.31032e-06 from=  1.00000e-08 to=  3.30004e-07
power_avg_uw        =  2.17803e+00


Total analysis time (seconds) = 2.67178

Total elapsed time (seconds) = 2.759 

Total DRAM available = 16384.000 MB.
DRAM currently available =  318.125 MB.
Maximum ngspice program size =   18.203 MB.
Current ngspice program size =   18.203 MB.

