
Note: No compatibility mode selected!


Circuit: GF180MCU library cell xor2_1 A1_to_Z__A2=0

Doing analysis at TEMP = 111.932990 and TNOM = 27.000000

Using SPARSE 1.3 as Direct Linear Solver

Initial Transient Solution
--------------------------

Node                                   Voltage
----                                   -------
vdd                                      1.791
a1                                           0
a2                                           0
xu1.i                                    1.791
z                                  6.91155e-08
xu1.net_0                          2.97366e-08
xu1.net_2                                1.791
xu1.net_1                             0.700286
vfix_a2#branch                               0
vin#branch                                   0
vdd#branch                        -1.68803e-11

 Reference value :  4.29123e-08
 Reference value :  1.03187e-07
 Reference value :  1.69947e-07
 Reference value :  2.35892e-07
 Reference value :  2.98062e-07
No. of Data Rows : 68032

  Measurements for Transient Analysis

tplh                =  1.93133e-08 targ=  4.46282e-08 trig=  2.53149e-08
tphl                =  5.98049e-09 targ=  1.03925e-07 trig=  9.79448e-08
i_vdd_avg           =  -1.68614e-06 from=  1.00000e-08 to=  3.30002e-07
power_avg_uw        =  3.01989e+00


Total analysis time (seconds) = 1.50173

Total elapsed time (seconds) = 1.580 

Total DRAM available = 16384.000 MB.
DRAM currently available =  102.188 MB.
Maximum ngspice program size =   16.953 MB.
Current ngspice program size =   16.953 MB.

