
Note: No compatibility mode selected!


Circuit: GF180MCU library cell xor2_4 A1_to_Z__A2=0

Doing analysis at TEMP = 16.968625 and TNOM = 27.000000

Using SPARSE 1.3 as Direct Linear Solver

Initial Transient Solution
--------------------------

Node                                   Voltage
----                                   -------
vdd                                    1.89747
a1                                           0
a2                                           0
xu1.net_2                           0.00215416
xu1.i                                  1.89747
xu1.net_0                          8.78652e-12
xu1.z_neg                              1.89747
z                                  1.42188e-08
xu1.net_1                              1.89747
vfix_a2#branch                               0
vin#branch                                   0
vdd#branch                        -1.36771e-11

 Reference value :  2.56875e-08
 Reference value :  6.48781e-08
 Reference value :  1.01368e-07
 Reference value :  1.39944e-07
 Reference value :  1.78749e-07
 Reference value :  2.16148e-07
 Reference value :  2.53933e-07
 Reference value :  2.92209e-07
 Reference value :  3.28144e-07
No. of Data Rows : 68032

  Measurements for Transient Analysis

tplh                =  2.75232e-09 targ=  3.23851e-08 trig=  2.96328e-08
tphl                =  4.99734e-09 targ=  1.15896e-07 trig=  1.10898e-07
i_vdd_avg           =  -2.77016e-07 from=  1.00000e-08 to=  3.30004e-07
power_avg_uw        =  5.25630e-01


Total analysis time (seconds) = 2.57712

Total elapsed time (seconds) = 2.662 

Total DRAM available = 16384.000 MB.
DRAM currently available =  123.328 MB.
Maximum ngspice program size =   18.250 MB.
Current ngspice program size =   18.250 MB.

