
Note: No compatibility mode selected!


Circuit: GF180MCU library cell aoi21_1 A1_to_ZN__A2=1,B=0

Doing analysis at TEMP = 17.079067 and TNOM = 27.000000

Using SPARSE 1.3 as Direct Linear Solver

Initial Transient Solution
--------------------------

Node                                   Voltage
----                                   -------
vdd                                    1.68026
a1                                           0
a2                                     1.68026
b                                            0
xu1.net_0                          4.91511e-12
zn                                     1.68026
xu1.net_1                              1.68026
vfix_b#branch                                0
vfix_a2#branch                               0
vin#branch                                   0
vdd#branch                        -3.38191e-12

 Reference value :  6.69698e-08
 Reference value :  1.69632e-07
 Reference value :  2.69845e-07
No. of Data Rows : 68030

  Measurements for Transient Analysis

tphl                =  8.41046e-09 targ=  3.73591e-08 trig=  2.89487e-08
tplh                =  2.13310e-08 targ=  1.30177e-07 trig=  1.08846e-07
i_vdd_avg           =  -1.31335e-06 from=  1.00000e-08 to=  3.30002e-07
power_avg_uw        =  2.20678e+00


Total analysis time (seconds) = 0.916421

Total elapsed time (seconds) = 0.998 

Total DRAM available = 16384.000 MB.
DRAM currently available =  246.250 MB.
Maximum ngspice program size =   16.094 MB.
Current ngspice program size =   16.094 MB.

