
Note: No compatibility mode selected!


Circuit: GF180MCU library cell mux2_4 I0_to_Z__I1=0,S=0

Doing analysis at TEMP = 40.825155 and TNOM = 27.000000

Using SPARSE 1.3 as Direct Linear Solver

Initial Transient Solution
--------------------------

Node                                   Voltage
----                                   -------
vdd                                    1.76327
i0                                           0
i1                                           0
s                                            0
xu1.int04                              1.76327
z                                  1.58124e-08
xu1.net_1                           0.00171904
xu1.net_3                              1.09543
xu1.sel1_n                             1.76327
xu1.net_0                              1.76327
xu1.net_2                              1.76327
vfix_s#branch                                0
vfix_i1#branch                               0
vin#branch                                   0
vdd#branch                        -1.49238e-11

 Reference value :  2.52425e-08
 Reference value :  6.10223e-08
 Reference value :  9.91673e-08
 Reference value :  1.34557e-07
 Reference value :  1.73702e-07
 Reference value :  2.11457e-07
 Reference value :  2.49347e-07
 Reference value :  2.87267e-07
 Reference value :  3.25252e-07
No. of Data Rows : 68032

  Measurements for Transient Analysis

tplh                =  2.29847e-09 targ=  2.77108e-08 trig=  2.54124e-08
tphl                =  3.61850e-09 targ=  1.01856e-07 trig=  9.82371e-08
i_vdd_avg           =  -5.62816e-07 from=  1.00000e-08 to=  3.30002e-07
power_avg_uw        =  9.92394e-01


Total analysis time (seconds) = 2.59438

Total elapsed time (seconds) = 2.678 

Total DRAM available = 16384.000 MB.
DRAM currently available =  107.797 MB.
Maximum ngspice program size =   19.406 MB.
Current ngspice program size =   19.406 MB.

