
Note: No compatibility mode selected!


Circuit: GF180MCU library cell nor2_1 A1_to_ZN__A2=0

Doing analysis at TEMP = 17.572971 and TNOM = 27.000000

Using SPARSE 1.3 as Direct Linear Solver

Initial Transient Solution
--------------------------

Node                                   Voltage
----                                   -------
vdd                                    1.71665
a1                                           0
a2                                           0
zn                                     1.71665
xu1.net_0                              1.71665
vfix_a2#branch                               0
vin#branch                                   0
vdd#branch                        -3.45471e-12

 Reference value :  9.75700e-08
 Reference value :  2.32420e-07
No. of Data Rows : 68034

  Measurements for Transient Analysis

tphl                =  9.21079e-09 targ=  3.78420e-08 trig=  2.86313e-08
tplh                =  2.94049e-08 targ=  1.37299e-07 trig=  1.07894e-07
i_vdd_avg           =  -2.04369e-06 from=  1.00000e-08 to=  3.30003e-07
power_avg_uw        =  3.50830e+00


Total analysis time (seconds) = 0.741533

Total elapsed time (seconds) = 0.828 

Total DRAM available = 16384.000 MB.
DRAM currently available =   67.828 MB.
Maximum ngspice program size =   18.953 MB.
Current ngspice program size =   18.953 MB.

