
Note: No compatibility mode selected!


Circuit: GF180MCU library cell nor2_4 A1_to_ZN__A2=0

Doing analysis at TEMP = 25.156615 and TNOM = 27.000000

Using SPARSE 1.3 as Direct Linear Solver

Initial Transient Solution
--------------------------

Node                                   Voltage
----                                   -------
vdd                                    1.93441
a1                                           0
a2                                           0
zn                                     1.93441
xu1.net_0_0                            1.93441
xu1.net_0_1                            1.93441
xu1.net_0_2                            1.93441
xu1.net_0_3                            1.93441
vfix_a2#branch                               0
vin#branch                                   0
vdd#branch                        -1.55677e-11

 Reference value :  2.75644e-08
 Reference value :  7.11894e-08
 Reference value :  1.13221e-07
 Reference value :  1.54931e-07
 Reference value :  1.97479e-07
 Reference value :  2.40789e-07
 Reference value :  2.83816e-07
 Reference value :  3.25386e-07
No. of Data Rows : 68030

  Measurements for Transient Analysis

tphl                =  8.34092e-10 targ=  2.58925e-08 trig=  2.50584e-08
tplh                =  1.63846e-09 targ=  9.88138e-08 trig=  9.71753e-08
i_vdd_avg           =  -5.13867e-07 from=  1.00000e-08 to=  3.30001e-07
power_avg_uw        =  9.94027e-01


Total analysis time (seconds) = 2.15322

Total elapsed time (seconds) = 2.231 

Total DRAM available = 16384.000 MB.
DRAM currently available =  226.375 MB.
Maximum ngspice program size =   16.141 MB.
Current ngspice program size =   16.141 MB.

