
Note: No compatibility mode selected!


Circuit: GF180MCU library cell inv_1 I_to_ZN

Doing analysis at TEMP = 21.098501 and TNOM = 27.000000

Using SPARSE 1.3 as Direct Linear Solver

Initial Transient Solution
--------------------------

Node                                   Voltage
----                                   -------
vdd                                    1.96346
i                                            0
zn                                     1.96346
vin#branch                                   0
vdd#branch                         -1.9744e-12

 Reference value :  1.50769e-07
No. of Data Rows : 68034

  Measurements for Transient Analysis

tphl                =  3.60240e-09 targ=  3.26266e-08 trig=  2.90242e-08
tplh                =  5.94511e-09 targ=  1.15018e-07 trig=  1.09072e-07
i_vdd_avg           =  -7.76500e-07 from=  1.00000e-08 to=  3.30004e-07
power_avg_uw        =  1.52463e+00


Total analysis time (seconds) = 0.424238

Total elapsed time (seconds) = 0.513 

Total DRAM available = 16384.000 MB.
DRAM currently available =  217.172 MB.
Maximum ngspice program size =   18.094 MB.
Current ngspice program size =   18.094 MB.

