
Note: No compatibility mode selected!


Circuit: GF180MCU library cell mux2_1 I0_to_Z__I1=0,S=0

Doing analysis at TEMP = 35.904256 and TNOM = 27.000000

Using SPARSE 1.3 as Direct Linear Solver

Initial Transient Solution
--------------------------

Node                                   Voltage
----                                   -------
vdd                                    1.89977
i0                                           0
i1                                           0
s                                            0
xu1.int04                              1.89977
z                                  1.50345e-08
xu1.net_1                           0.00788358
xu1.net_3                              1.29195
xu1.sel1_n                             1.89977
xu1.net_0                              1.89977
xu1.net_2                              1.89977
vfix_s#branch                                0
vfix_i1#branch                               0
vin#branch                                   0
vdd#branch                        -1.04001e-11

 Reference value :  3.55102e-08
 Reference value :  9.17252e-08
 Reference value :  1.47458e-07
 Reference value :  1.99595e-07
 Reference value :  2.54575e-07
 Reference value :  3.04728e-07
No. of Data Rows : 68034

  Measurements for Transient Analysis

tplh                =  5.12485e-09 targ=  3.05287e-08 trig=  2.54039e-08
tphl                =  3.96964e-09 targ=  1.02181e-07 trig=  9.82116e-08
i_vdd_avg           =  -1.03986e-06 from=  1.00000e-08 to=  3.30003e-07
power_avg_uw        =  1.97551e+00


Total analysis time (seconds) = 1.70381

Total elapsed time (seconds) = 1.790 

Total DRAM available = 16384.000 MB.
DRAM currently available =  255.328 MB.
Maximum ngspice program size =   18.453 MB.
Current ngspice program size =   18.453 MB.

