
Note: No compatibility mode selected!


Circuit: GF180MCU library cell aoi21_4 A1_to_ZN__A2=1,B=0

Doing analysis at TEMP = 16.329301 and TNOM = 27.000000

Using SPARSE 1.3 as Direct Linear Solver

Initial Transient Solution
--------------------------

Node                                   Voltage
----                                   -------
vdd                                    1.64403
a1                                           0
a2                                     1.64403
b                                            0
xu1.net_0_0                        4.65493e-12
zn                                     1.64403
xu1.net_0_1                        4.65493e-12
xu1.net_0_2                        4.65493e-12
xu1.net_0_3                        4.65493e-12
xu1.net_1                              1.64403
vfix_b#branch                                0
vfix_a2#branch                               0
vin#branch                                   0
vdd#branch                        -1.32373e-11

 Reference value :  2.22814e-08
 Reference value :  5.72122e-08
 Reference value :  9.22722e-08
 Reference value :  1.21952e-07
 Reference value :  1.51587e-07
 Reference value :  1.83257e-07
 Reference value :  2.13467e-07
 Reference value :  2.41612e-07
 Reference value :  2.70962e-07
 Reference value :  3.01547e-07
 Reference value :  3.31877e-07
No. of Data Rows : 68032

  Measurements for Transient Analysis

tphl                =  5.24817e-09 targ=  3.43805e-08 trig=  2.91323e-08
tplh                =  1.11842e-08 targ=  1.20581e-07 trig=  1.09397e-07
i_vdd_avg           =  -2.03996e-06 from=  1.00000e-08 to=  3.30002e-07
power_avg_uw        =  3.35376e+00


Total analysis time (seconds) = 3.04532

Total elapsed time (seconds) = 3.110 

Total DRAM available = 16384.000 MB.
DRAM currently available =  123.156 MB.
Maximum ngspice program size =   18.438 MB.
Current ngspice program size =   18.438 MB.

