
Note: No compatibility mode selected!


Circuit: GF180MCU library cell nand2_4 A1_to_ZN__A2=1

Doing analysis at TEMP = 26.596421 and TNOM = 27.000000

Using SPARSE 1.3 as Direct Linear Solver

Initial Transient Solution
--------------------------

Node                                   Voltage
----                                   -------
vdd                                    1.82907
a1                                           0
a2                                     1.82907
xu1.net_0_0                        1.15689e-11
zn                                     1.82907
xu1.net_0_1                        1.15689e-11
xu1.net_0_2                        1.15689e-11
xu1.net_0_3                        1.15689e-11
vfix_a2#branch                               0
vin#branch                                   0
vdd#branch                        -7.36224e-12

 Reference value :  2.89825e-08
 Reference value :  6.91967e-08
 Reference value :  1.12826e-07
 Reference value :  1.55216e-07
 Reference value :  1.97617e-07
 Reference value :  2.41712e-07
 Reference value :  2.85591e-07
 Reference value :  3.28836e-07
No. of Data Rows : 68032

  Measurements for Transient Analysis

tphl                =  3.44882e-09 targ=  3.17559e-08 trig=  2.83071e-08
tplh                =  4.83414e-09 targ=  1.11755e-07 trig=  1.06921e-07
i_vdd_avg           =  -1.60785e-06 from=  1.00000e-08 to=  3.30001e-07
power_avg_uw        =  2.94087e+00


Total analysis time (seconds) = 2.12751

Total elapsed time (seconds) = 2.219 

Total DRAM available = 16384.000 MB.
DRAM currently available =  207.172 MB.
Maximum ngspice program size =   18.891 MB.
Current ngspice program size =   18.891 MB.

