
Note: No compatibility mode selected!


Circuit: GF180MCU library cell aoi21_4 A1_to_ZN__A2=1,B=0

Doing analysis at TEMP = 75.735540 and TNOM = 27.000000

Using SPARSE 1.3 as Direct Linear Solver

Initial Transient Solution
--------------------------

Node                                   Voltage
----                                   -------
vdd                                    1.90459
a1                                           0
a2                                     1.90459
b                                            0
xu1.net_0_0                        6.17031e-10
zn                                     1.90458
xu1.net_0_1                        6.17031e-10
xu1.net_0_2                        6.17031e-10
xu1.net_0_3                        6.17031e-10
xu1.net_1                              1.90459
vfix_b#branch                                0
vfix_a2#branch                               0
vin#branch                                   0
vdd#branch                        -1.59776e-11

 Reference value :  1.97564e-08
 Reference value :  4.86912e-08
 Reference value :  7.85862e-08
 Reference value :  1.08156e-07
 Reference value :  1.38420e-07
 Reference value :  1.67190e-07
 Reference value :  1.95591e-07
 Reference value :  2.25436e-07
 Reference value :  2.53376e-07
 Reference value :  2.82235e-07
 Reference value :  3.11905e-07
No. of Data Rows : 68034

  Measurements for Transient Analysis

tphl                =  1.23818e-09 targ=  2.98300e-08 trig=  2.85918e-08
tplh                =  2.92877e-09 targ=  1.10704e-07 trig=  1.07776e-07
i_vdd_avg           =  -3.37871e-07 from=  1.00000e-08 to=  3.30005e-07
power_avg_uw        =  6.43505e-01


Total analysis time (seconds) = 3.23799

Total elapsed time (seconds) = 3.321 

Total DRAM available = 16384.000 MB.
DRAM currently available =  246.250 MB.
Maximum ngspice program size =   18.531 MB.
Current ngspice program size =   18.531 MB.

