
Note: No compatibility mode selected!


Circuit: GF180MCU library cell nor2_1 A1_to_ZN__A2=0

Doing analysis at TEMP = -25.577083 and TNOM = 27.000000

Using SPARSE 1.3 as Direct Linear Solver

Initial Transient Solution
--------------------------

Node                                   Voltage
----                                   -------
vdd                                    1.81652
a1                                           0
a2                                           0
zn                                     1.81652
xu1.net_0                              1.81652
vfix_a2#branch                               0
vin#branch                                   0
vdd#branch                        -3.65305e-12

 Reference value :  8.89878e-08
 Reference value :  2.24438e-07
No. of Data Rows : 68032

  Measurements for Transient Analysis

tphl                =  1.90915e-09 targ=  2.61593e-08 trig=  2.42502e-08
tplh                =  6.77994e-09 targ=  1.01530e-07 trig=  9.47505e-08
i_vdd_avg           =  -7.02511e-07 from=  1.00000e-08 to=  3.30003e-07
power_avg_uw        =  1.27612e+00


Total analysis time (seconds) = 0.68536

Total elapsed time (seconds) = 0.780 

Total DRAM available = 16384.000 MB.
DRAM currently available =  112.031 MB.
Maximum ngspice program size =   18.828 MB.
Current ngspice program size =   18.828 MB.

