
Note: No compatibility mode selected!


Circuit: GF180MCU library cell xor2_4 A1_to_Z__A2=0

Doing analysis at TEMP = 13.412586 and TNOM = 27.000000

Using SPARSE 1.3 as Direct Linear Solver

Initial Transient Solution
--------------------------

Node                                   Voltage
----                                   -------
vdd                                    1.97537
a1                                           0
a2                                           0
xu1.net_2                           0.00165671
xu1.i                                  1.97537
xu1.net_0                          5.94314e-12
xu1.z_neg                              1.97537
z                                  1.38125e-08
xu1.net_1                              1.97537
vfix_a2#branch                               0
vin#branch                                   0
vdd#branch                        -1.42384e-11

 Reference value :  2.46925e-08
 Reference value :  6.30019e-08
 Reference value :  1.00996e-07
 Reference value :  1.39171e-07
 Reference value :  1.77686e-07
 Reference value :  2.15892e-07
 Reference value :  2.56452e-07
 Reference value :  2.95671e-07
 Reference value :  3.32516e-07
No. of Data Rows : 68032

  Measurements for Transient Analysis

tplh                =  2.58958e-09 targ=  2.75093e-08 trig=  2.49197e-08
tphl                =  3.10138e-09 targ=  9.98605e-08 trig=  9.67591e-08
i_vdd_avg           =  -1.74974e-06 from=  1.00000e-08 to=  3.30001e-07
power_avg_uw        =  3.45639e+00


Total analysis time (seconds) = 2.40301

Total elapsed time (seconds) = 2.483 

Total DRAM available = 16384.000 MB.
DRAM currently available =  255.328 MB.
Maximum ngspice program size =   18.000 MB.
Current ngspice program size =   18.000 MB.

