
Note: No compatibility mode selected!


Circuit: GF180MCU library cell nor2_1 A1_to_ZN__A2=0

Doing analysis at TEMP = 114.579270 and TNOM = 27.000000

Using SPARSE 1.3 as Direct Linear Solver

Initial Transient Solution
--------------------------

Node                                   Voltage
----                                   -------
vdd                                    1.87168
a1                                           0
a2                                           0
zn                                     1.87168
xu1.net_0                              1.87168
vfix_a2#branch                               0
vin#branch                                   0
vdd#branch                        -5.34317e-12

 Reference value :  1.06182e-07
 Reference value :  2.53435e-07
No. of Data Rows : 68030

  Measurements for Transient Analysis

tphl                =  2.00724e-09 targ=  2.85910e-08 trig=  2.65837e-08
tplh                =  4.11128e-09 targ=  1.05862e-07 trig=  1.01751e-07
i_vdd_avg           =  -2.81386e-07 from=  1.00000e-08 to=  3.30002e-07
power_avg_uw        =  5.26665e-01


Total analysis time (seconds) = 0.643113

Total elapsed time (seconds) = 0.721 

Total DRAM available = 16384.000 MB.
DRAM currently available =  227.203 MB.
Maximum ngspice program size =   17.672 MB.
Current ngspice program size =   17.672 MB.

