
Note: No compatibility mode selected!


Circuit: GF180MCU library cell oai21_1 A1_to_ZN__A2=0,B=1

Doing analysis at TEMP = 15.263004 and TNOM = 27.000000

Using SPARSE 1.3 as Direct Linear Solver

Initial Transient Solution
--------------------------

Node                                   Voltage
----                                   -------
vdd                                    1.68425
a1                                           0
a2                                           0
b                                      1.68425
zn                                     1.68425
xu1.net_0                          8.15919e-12
xu1.net_1                              1.68425
vfix_b#branch                                0
vfix_a2#branch                               0
vin#branch                                   0
vdd#branch                        -3.38946e-12

 Reference value :  6.48615e-08
 Reference value :  1.65571e-07
 Reference value :  2.66891e-07
No. of Data Rows : 68032

  Measurements for Transient Analysis

tphl                =  5.59762e-09 targ=  3.23746e-08 trig=  2.67770e-08
tplh                =  1.46891e-08 targ=  1.17020e-07 trig=  1.02331e-07
i_vdd_avg           =  -9.48616e-07 from=  1.00000e-08 to=  3.30001e-07
power_avg_uw        =  1.59771e+00


Total analysis time (seconds) = 0.901924

Total elapsed time (seconds) = 0.981 

Total DRAM available = 16384.000 MB.
DRAM currently available =  207.172 MB.
Maximum ngspice program size =   16.297 MB.
Current ngspice program size =   16.297 MB.

