
Note: No compatibility mode selected!


Circuit: GF180MCU library cell inv_1 I_to_ZN

Doing analysis at TEMP = 110.340280 and TNOM = 27.000000

Using SPARSE 1.3 as Direct Linear Solver

Initial Transient Solution
--------------------------

Node                                   Voltage
----                                   -------
vdd                                    1.72716
i                                            0
zn                                     1.72716
vin#branch                                   0
vdd#branch                        -2.31539e-12

 Reference value :  1.53333e-07
No. of Data Rows : 68034

  Measurements for Transient Analysis

tphl                =  4.89380e-09 targ=  3.09077e-08 trig=  2.60139e-08
tplh                =  1.09091e-08 targ=  1.10951e-07 trig=  1.00042e-07
i_vdd_avg           =  -1.61253e-06 from=  1.00000e-08 to=  3.30003e-07
power_avg_uw        =  2.78509e+00


Total analysis time (seconds) = 0.43647

Total elapsed time (seconds) = 0.503 

Total DRAM available = 16384.000 MB.
DRAM currently available =  120.984 MB.
Maximum ngspice program size =   15.281 MB.
Current ngspice program size =   15.281 MB.

