
Note: No compatibility mode selected!


Circuit: GF180MCU library cell mux2_4 I0_to_Z__I1=0,S=0

Doing analysis at TEMP = 4.447788 and TNOM = 27.000000

Using SPARSE 1.3 as Direct Linear Solver

Initial Transient Solution
--------------------------

Node                                   Voltage
----                                   -------
vdd                                    1.89813
i0                                           0
i1                                           0
s                                            0
xu1.int04                              1.89813
z                                  1.36677e-08
xu1.net_1                          6.09327e-05
xu1.net_3                              1.13821
xu1.sel1_n                             1.89813
xu1.net_0                              1.89813
xu1.net_2                              1.89813
vfix_s#branch                                0
vfix_i1#branch                               0
vin#branch                                   0
vdd#branch                        -1.59715e-11

 Reference value :  2.30914e-08
 Reference value :  6.25192e-08
 Reference value :  1.00082e-07
 Reference value :  1.36711e-07
 Reference value :  1.74511e-07
 Reference value :  2.12494e-07
 Reference value :  2.49924e-07
 Reference value :  2.86346e-07
 Reference value :  3.21921e-07
No. of Data Rows : 68030

  Measurements for Transient Analysis

tplh                =  3.40890e-09 targ=  3.04498e-08 trig=  2.70409e-08
tphl                =  4.33847e-09 targ=  1.07461e-07 trig=  1.03123e-07
i_vdd_avg           =  -1.48550e-06 from=  1.00000e-08 to=  3.30001e-07
power_avg_uw        =  2.81968e+00


Total analysis time (seconds) = 2.47164

Total elapsed time (seconds) = 2.556 

Total DRAM available = 16384.000 MB.
DRAM currently available =  207.172 MB.
Maximum ngspice program size =   17.328 MB.
Current ngspice program size =   17.328 MB.

