
Note: No compatibility mode selected!


Circuit: GF180MCU library cell oai21_1 A1_to_ZN__A2=0,B=1

Doing analysis at TEMP = 11.699069 and TNOM = 27.000000

Using SPARSE 1.3 as Direct Linear Solver

Initial Transient Solution
--------------------------

Node                                   Voltage
----                                   -------
vdd                                    1.63456
a1                                           0
a2                                           0
b                                      1.63456
zn                                     1.63456
xu1.net_0                          5.81707e-12
xu1.net_1                              1.63456
vfix_b#branch                                0
vfix_a2#branch                               0
vin#branch                                   0
vdd#branch                        -3.28976e-12

 Reference value :  6.74095e-08
 Reference value :  1.67881e-07
 Reference value :  2.67114e-07
No. of Data Rows : 68030

  Measurements for Transient Analysis

tphl                =  1.10040e-08 targ=  3.98850e-08 trig=  2.88810e-08
tplh                =  3.03042e-08 targ=  1.38947e-07 trig=  1.08643e-07
i_vdd_avg           =  -1.68517e-06 from=  1.00000e-08 to=  3.30001e-07
power_avg_uw        =  2.75451e+00


Total analysis time (seconds) = 0.930452

Total elapsed time (seconds) = 1.005 

Total DRAM available = 16384.000 MB.
DRAM currently available =  107.797 MB.
Maximum ngspice program size =   17.188 MB.
Current ngspice program size =   17.188 MB.

