
Note: No compatibility mode selected!


Circuit: GF180MCU library cell aoi21_1 A1_to_ZN__A2=1,B=0

Doing analysis at TEMP = 88.961300 and TNOM = 27.000000

Using SPARSE 1.3 as Direct Linear Solver

Initial Transient Solution
--------------------------

Node                                   Voltage
----                                   -------
vdd                                     1.7967
a1                                           0
a2                                      1.7967
b                                            0
xu1.net_0                          1.57552e-09
zn                                      1.7967
xu1.net_1                               1.7967
vfix_b#branch                                0
vfix_a2#branch                               0
vin#branch                                   0
vdd#branch                         -3.9839e-12

 Reference value :  6.51613e-08
 Reference value :  1.64270e-07
 Reference value :  2.64316e-07
No. of Data Rows : 68032

  Measurements for Transient Analysis

tphl                =  5.75148e-09 targ=  3.23834e-08 trig=  2.66319e-08
tplh                =  1.43178e-08 targ=  1.16213e-07 trig=  1.01896e-07
i_vdd_avg           =  -1.15739e-06 from=  1.00000e-08 to=  3.30000e-07
power_avg_uw        =  2.07948e+00


Total analysis time (seconds) = 0.95565

Total elapsed time (seconds) = 1.035 

Total DRAM available = 16384.000 MB.
DRAM currently available =  111.156 MB.
Maximum ngspice program size =   16.750 MB.
Current ngspice program size =   16.750 MB.

