
Note: No compatibility mode selected!


Circuit: GF180MCU library cell aoi21_1 A1_to_ZN__A2=1,B=0

Doing analysis at TEMP = -7.454906 and TNOM = 27.000000

Using SPARSE 1.3 as Direct Linear Solver

Initial Transient Solution
--------------------------

Node                                   Voltage
----                                   -------
vdd                                     1.6688
a1                                           0
a2                                      1.6688
b                                            0
xu1.net_0                          3.33936e-13
zn                                      1.6688
xu1.net_1                               1.6688
vfix_b#branch                                0
vfix_a2#branch                               0
vin#branch                                   0
vdd#branch                         -3.3577e-12

 Reference value :  6.10384e-08
 Reference value :  1.57234e-07
 Reference value :  2.59143e-07
No. of Data Rows : 68032

  Measurements for Transient Analysis

tphl                =  7.30106e-09 targ=  3.29340e-08 trig=  2.56330e-08
tplh                =  2.19155e-08 targ=  1.20814e-07 trig=  9.88989e-08
i_vdd_avg           =  -1.48505e-06 from=  1.00000e-08 to=  3.30004e-07
power_avg_uw        =  2.47824e+00


Total analysis time (seconds) = 0.975489

Total elapsed time (seconds) = 1.066 

Total DRAM available = 16384.000 MB.
DRAM currently available =  102.188 MB.
Maximum ngspice program size =   18.797 MB.
Current ngspice program size =   18.797 MB.

