
Note: No compatibility mode selected!


Circuit: GF180MCU library cell nor2_1 A1_to_ZN__A2=0

Doing analysis at TEMP = -1.258650 and TNOM = 27.000000

Using SPARSE 1.3 as Direct Linear Solver

Initial Transient Solution
--------------------------

Node                                   Voltage
----                                   -------
vdd                                    1.77795
a1                                           0
a2                                           0
zn                                     1.77795
xu1.net_0                              1.77795
vfix_a2#branch                               0
vin#branch                                   0
vdd#branch                         -3.5761e-12

 Reference value :  9.04874e-08
 Reference value :  2.29597e-07
No. of Data Rows : 68032

  Measurements for Transient Analysis

tphl                =  3.77814e-09 targ=  2.89031e-08 trig=  2.51250e-08
tplh                =  1.28662e-08 targ=  1.10241e-07 trig=  9.73749e-08
i_vdd_avg           =  -1.14179e-06 from=  1.00000e-08 to=  3.30002e-07
power_avg_uw        =  2.03004e+00


Total analysis time (seconds) = 0.695103

Total elapsed time (seconds) = 0.778 

Total DRAM available = 16384.000 MB.
DRAM currently available =  207.172 MB.
Maximum ngspice program size =   17.797 MB.
Current ngspice program size =   17.797 MB.

