
Note: No compatibility mode selected!


Circuit: GF180MCU library cell oai21_1 A1_to_ZN__A2=0,B=1

Doing analysis at TEMP = -28.785139 and TNOM = 27.000000

Using SPARSE 1.3 as Direct Linear Solver

Initial Transient Solution
--------------------------

Node                                   Voltage
----                                   -------
vdd                                    1.83015
a1                                           0
a2                                           0
b                                      1.83015
zn                                     1.83015
xu1.net_0                          3.81998e-14
xu1.net_1                              1.83015
vfix_b#branch                                0
vfix_a2#branch                               0
vin#branch                                   0
vdd#branch                         -3.6803e-12

 Reference value :  7.51825e-08
 Reference value :  1.79297e-07
 Reference value :  2.85367e-07
No. of Data Rows : 68032

  Measurements for Transient Analysis

tphl                =  6.96070e-09 targ=  3.15232e-08 trig=  2.45625e-08
tplh                =  2.02238e-08 targ=  1.15911e-07 trig=  9.56875e-08
i_vdd_avg           =  -2.18812e-06 from=  1.00000e-08 to=  3.30002e-07
power_avg_uw        =  4.00459e+00


Total analysis time (seconds) = 0.907349

Total elapsed time (seconds) = 0.992 

Total DRAM available = 16384.000 MB.
DRAM currently available =  227.203 MB.
Maximum ngspice program size =   19.578 MB.
Current ngspice program size =   19.578 MB.

