
Note: No compatibility mode selected!


Circuit: GF180MCU library cell xor2_4 A1_to_Z__A2=0

Doing analysis at TEMP = 48.572737 and TNOM = 27.000000

Using SPARSE 1.3 as Direct Linear Solver

Initial Transient Solution
--------------------------

Node                                   Voltage
----                                   -------
vdd                                    1.67609
a1                                           0
a2                                           0
xu1.net_2                            0.0135688
xu1.i                                  1.67609
xu1.net_0                          1.73164e-10
xu1.z_neg                              1.67609
z                                  1.66221e-08
xu1.net_1                              1.67609
vfix_a2#branch                               0
vin#branch                                   0
vdd#branch                        -1.21319e-11

 Reference value :  2.88725e-08
 Reference value :  6.81866e-08
 Reference value :  1.06977e-07
 Reference value :  1.46361e-07
 Reference value :  1.83841e-07
 Reference value :  2.20647e-07
 Reference value :  2.56862e-07
 Reference value :  2.92211e-07
 Reference value :  3.31116e-07
No. of Data Rows : 68032

  Measurements for Transient Analysis

tplh                =  6.45133e-09 targ=  3.51834e-08 trig=  2.87321e-08
tphl                =  7.37180e-09 targ=  1.15568e-07 trig=  1.08196e-07
i_vdd_avg           =  -2.04656e-06 from=  1.00000e-08 to=  3.30001e-07
power_avg_uw        =  3.43022e+00


Total analysis time (seconds) = 2.41338

Total elapsed time (seconds) = 2.482 

Total DRAM available = 16384.000 MB.
DRAM currently available =  237.469 MB.
Maximum ngspice program size =   12.797 MB.
Current ngspice program size =   12.641 MB.

