
Note: No compatibility mode selected!


Circuit: GF180MCU library cell nand2_1 A1_to_ZN__A2=1

Doing analysis at TEMP = 68.186663 and TNOM = 27.000000

Using SPARSE 1.3 as Direct Linear Solver

Initial Transient Solution
--------------------------

Node                                   Voltage
----                                   -------
vdd                                    1.78546
a1                                           0
a2                                     1.78546
xu1.net_0                          3.76239e-10
zn                                     1.78546
vfix_a2#branch                               0
vin#branch                                   0
vdd#branch                        -1.83706e-12

 Reference value :  9.20655e-08
 Reference value :  2.28505e-07
No. of Data Rows : 68034

  Measurements for Transient Analysis

tphl                =  6.10908e-09 targ=  3.60856e-08 trig=  2.99765e-08
tplh                =  8.48168e-09 targ=  1.20411e-07 trig=  1.11929e-07
i_vdd_avg           =  -8.22120e-07 from=  1.00000e-08 to=  3.30003e-07
power_avg_uw        =  1.46786e+00


Total analysis time (seconds) = 0.660079

Total elapsed time (seconds) = 0.753 

Total DRAM available = 16384.000 MB.
DRAM currently available =  196.453 MB.
Maximum ngspice program size =   17.781 MB.
Current ngspice program size =   17.781 MB.

