
Note: No compatibility mode selected!


Circuit: GF180MCU library cell inv_4 I_to_ZN

Doing analysis at TEMP = 85.649498 and TNOM = 27.000000

Using SPARSE 1.3 as Direct Linear Solver

Initial Transient Solution
--------------------------

Node                                   Voltage
----                                   -------
vdd                                    1.85166
i                                            0
zn                                     1.85166
vin#branch                                   0
vdd#branch                        -7.99947e-12

 Reference value :  5.26473e-08
 Reference value :  1.34892e-07
 Reference value :  2.13662e-07
 Reference value :  2.99002e-07
No. of Data Rows : 68032

  Measurements for Transient Analysis

tphl                =  1.54086e-09 targ=  2.99158e-08 trig=  2.83749e-08
tplh                =  3.06194e-09 targ=  1.10187e-07 trig=  1.07125e-07
i_vdd_avg           =  -5.83007e-07 from=  1.00000e-08 to=  3.30002e-07
power_avg_uw        =  1.07953e+00


Total analysis time (seconds) = 1.13169

Total elapsed time (seconds) = 1.204 

Total DRAM available = 16384.000 MB.
DRAM currently available =  237.469 MB.
Maximum ngspice program size =   15.812 MB.
Current ngspice program size =   15.812 MB.

