
Note: No compatibility mode selected!


Circuit: GF180MCU library cell nor2_4 A1_to_ZN__A2=0

Doing analysis at TEMP = 78.793179 and TNOM = 27.000000

Using SPARSE 1.3 as Direct Linear Solver

Initial Transient Solution
--------------------------

Node                                   Voltage
----                                   -------
vdd                                    1.77081
a1                                           0
a2                                           0
zn                                     1.77081
xu1.net_0_0                            1.77081
xu1.net_0_1                            1.77081
xu1.net_0_2                            1.77081
xu1.net_0_3                            1.77081
vfix_a2#branch                               0
vin#branch                                   0
vdd#branch                        -1.49752e-11

 Reference value :  2.70975e-08
 Reference value :  6.71124e-08
 Reference value :  1.10852e-07
 Reference value :  1.53662e-07
 Reference value :  1.99802e-07
 Reference value :  2.50122e-07
 Reference value :  3.06117e-07
No. of Data Rows : 68032

  Measurements for Transient Analysis

tphl                =  2.84973e-09 targ=  2.97172e-08 trig=  2.68674e-08
tplh                =  6.56689e-09 targ=  1.09169e-07 trig=  1.02602e-07
i_vdd_avg           =  -1.70278e-06 from=  1.00000e-08 to=  3.30002e-07
power_avg_uw        =  3.01530e+00


Total analysis time (seconds) = 1.90285

Total elapsed time (seconds) = 1.986 

Total DRAM available = 16384.000 MB.
DRAM currently available =  305.953 MB.
Maximum ngspice program size =   17.688 MB.
Current ngspice program size =   17.688 MB.

