
Note: No compatibility mode selected!


Circuit: GF180MCU library cell xor2_1 A1_to_Z__A2=0

Doing analysis at TEMP = 12.030438 and TNOM = 27.000000

Using SPARSE 1.3 as Direct Linear Solver

Initial Transient Solution
--------------------------

Node                                   Voltage
----                                   -------
vdd                                    1.69766
a1                                           0
a2                                           0
xu1.i                                  1.69766
z                                  5.00951e-08
xu1.net_0                          8.03678e-11
xu1.net_2                              1.69766
xu1.net_1                             0.848184
vfix_a2#branch                               0
vin#branch                                   0
vdd#branch                        -9.39019e-12

 Reference value :  3.94424e-08
 Reference value :  1.00707e-07
 Reference value :  1.67532e-07
 Reference value :  2.37212e-07
 Reference value :  3.12767e-07
No. of Data Rows : 68032

  Measurements for Transient Analysis

tplh                =  1.99389e-08 targ=  4.68863e-08 trig=  2.69474e-08
tphl                =  6.77008e-09 targ=  1.09612e-07 trig=  1.02842e-07
i_vdd_avg           =  -1.46328e-06 from=  1.00000e-08 to=  3.30002e-07
power_avg_uw        =  2.48414e+00


Total analysis time (seconds) = 1.31333

Total elapsed time (seconds) = 1.390 

Total DRAM available = 16384.000 MB.
DRAM currently available =  270.094 MB.
Maximum ngspice program size =   14.781 MB.
Current ngspice program size =   14.781 MB.

