
Note: No compatibility mode selected!


Circuit: GF180MCU library cell aoi21_1 A1_to_ZN__A2=1,B=0

Doing analysis at TEMP = -35.007318 and TNOM = 27.000000

Using SPARSE 1.3 as Direct Linear Solver

Initial Transient Solution
--------------------------

Node                                   Voltage
----                                   -------
vdd                                    1.80302
a1                                           0
a2                                     1.80302
b                                            0
xu1.net_0                          7.84232e-15
zn                                     1.80302
xu1.net_1                              1.80302
vfix_b#branch                                0
vfix_a2#branch                               0
vin#branch                                   0
vdd#branch                        -3.62604e-12

 Reference value :  8.97586e-08
 Reference value :  1.92023e-07
 Reference value :  3.01880e-07
No. of Data Rows : 68032

  Measurements for Transient Analysis

tphl                =  9.87565e-09 targ=  3.91462e-08 trig=  2.92705e-08
tplh                =  2.47451e-08 targ=  1.34557e-07 trig=  1.09812e-07
i_vdd_avg           =  -2.20971e-06 from=  1.00000e-08 to=  3.30005e-07
power_avg_uw        =  3.98416e+00


Total analysis time (seconds) = 0.849604

Total elapsed time (seconds) = 0.914 

Total DRAM available = 16384.000 MB.
DRAM currently available =  284.094 MB.
Maximum ngspice program size =   16.531 MB.
Current ngspice program size =   16.531 MB.

