
Note: No compatibility mode selected!


Circuit: GF180MCU library cell oai21_4 A1_to_ZN__A2=0,B=1

Doing analysis at TEMP = 78.616962 and TNOM = 27.000000

Using SPARSE 1.3 as Direct Linear Solver

Initial Transient Solution
--------------------------

Node                                   Voltage
----                                   -------
vdd                                    1.93114
a1                                           0
a2                                           0
b                                      1.93114
zn                                     1.93114
xu1.net_0                          1.49475e-09
xu1.net_1_0                            1.93114
xu1.net_1_1                            1.93114
xu1.net_1_2                            1.93114
xu1.net_1_3                            1.93114
vfix_b#branch                                0
vfix_a2#branch                               0
vin#branch                                   0
vdd#branch                         -1.6249e-11

 Reference value :  1.94114e-08
 Reference value :  5.12271e-08
 Reference value :  8.22671e-08
 Reference value :  1.12657e-07
 Reference value :  1.50927e-07
 Reference value :  1.90872e-07
 Reference value :  2.34512e-07
 Reference value :  2.82522e-07
 Reference value :  3.35902e-07
No. of Data Rows : 68032

  Measurements for Transient Analysis

tphl                =  2.15536e-09 targ=  2.94952e-08 trig=  2.73398e-08
tplh                =  4.30557e-09 targ=  1.08325e-07 trig=  1.04019e-07
i_vdd_avg           =  -1.03942e-06 from=  1.00000e-08 to=  3.30002e-07
power_avg_uw        =  2.00726e+00


Total analysis time (seconds) = 2.23579

Total elapsed time (seconds) = 2.326 

Total DRAM available = 16384.000 MB.
DRAM currently available =  339.391 MB.
Maximum ngspice program size =   17.094 MB.
Current ngspice program size =   17.094 MB.

