
Note: No compatibility mode selected!


Circuit: GF180MCU library cell inv_4 I_to_ZN

Doing analysis at TEMP = -20.394243 and TNOM = 27.000000

Using SPARSE 1.3 as Direct Linear Solver

Initial Transient Solution
--------------------------

Node                                   Voltage
----                                   -------
vdd                                    1.96899
i                                            0
zn                                     1.96899
vin#branch                                   0
vdd#branch                        -7.91601e-12

 Reference value :  6.30212e-08
 Reference value :  1.54975e-07
 Reference value :  2.39681e-07
 Reference value :  3.25745e-07
No. of Data Rows : 68034

  Measurements for Transient Analysis

tphl                =  1.25309e-09 targ=  2.60249e-08 trig=  2.47718e-08
tplh                =  2.46428e-09 targ=  9.87798e-08 trig=  9.63155e-08
i_vdd_avg           =  -2.33101e-06 from=  1.00000e-08 to=  3.30005e-07
power_avg_uw        =  4.58975e+00


Total analysis time (seconds) = 1.05176

Total elapsed time (seconds) = 1.124 

Total DRAM available = 16384.000 MB.
DRAM currently available =  215.062 MB.
Maximum ngspice program size =   18.688 MB.
Current ngspice program size =   18.688 MB.

