
Note: No compatibility mode selected!


Circuit: GF180MCU library cell aoi21_4 A1_to_ZN__A2=1,B=0

Doing analysis at TEMP = -21.882523 and TNOM = 27.000000

Using SPARSE 1.3 as Direct Linear Solver

Initial Transient Solution
--------------------------

Node                                   Voltage
----                                   -------
vdd                                     1.9643
a1                                           0
a2                                      1.9643
b                                            0
xu1.net_0_0                         4.6821e-14
zn                                      1.9643
xu1.net_0_1                        4.52331e-14
xu1.net_0_2                         4.6821e-14
xu1.net_0_3                        4.52331e-14
xu1.net_1                               1.9643
vfix_b#branch                                0
vfix_a2#branch                               0
vin#branch                                   0
vdd#branch                        -1.57945e-11

 Reference value :  1.93014e-08
 Reference value :  4.75244e-08
 Reference value :  7.66394e-08
 Reference value :  1.04554e-07
 Reference value :  1.33786e-07
 Reference value :  1.63681e-07
 Reference value :  1.92609e-07
 Reference value :  2.21174e-07
 Reference value :  2.48809e-07
 Reference value :  2.77441e-07
 Reference value :  3.07336e-07
 Reference value :  3.34771e-07
No. of Data Rows : 68030

  Measurements for Transient Analysis

tphl                =  3.08449e-09 targ=  3.07479e-08 trig=  2.76634e-08
tplh                =  5.84123e-09 targ=  1.10832e-07 trig=  1.04990e-07
i_vdd_avg           =  -2.07745e-06 from=  1.00000e-08 to=  3.30001e-07
power_avg_uw        =  4.08075e+00


Total analysis time (seconds) = 3.31784

Total elapsed time (seconds) = 3.416 

Total DRAM available = 16384.000 MB.
DRAM currently available =  107.797 MB.
Maximum ngspice program size =   17.547 MB.
Current ngspice program size =   17.547 MB.

