
Note: No compatibility mode selected!


Circuit: GF180MCU library cell xor2_4 A1_to_Z__A2=0

Doing analysis at TEMP = -16.804069 and TNOM = 27.000000

Using SPARSE 1.3 as Direct Linear Solver

Initial Transient Solution
--------------------------

Node                                   Voltage
----                                   -------
vdd                                     1.7551
a1                                           0
a2                                           0
xu1.net_2                          7.74887e-05
xu1.i                                   1.7551
xu1.net_0                          1.99398e-13
xu1.z_neg                              1.75509
z                                  1.33336e-08
xu1.net_1                               1.7551
vfix_a2#branch                               0
vin#branch                                   0
vdd#branch                        -1.26405e-11

 Reference value :  2.40875e-08
 Reference value :  6.28646e-08
 Reference value :  1.02105e-07
 Reference value :  1.38237e-07
 Reference value :  1.75532e-07
 Reference value :  2.11845e-07
 Reference value :  2.49900e-07
 Reference value :  2.86377e-07
 Reference value :  3.24177e-07
No. of Data Rows : 68030

  Measurements for Transient Analysis

tplh                =  3.70818e-09 targ=  3.12692e-08 trig=  2.75610e-08
tphl                =  5.18581e-09 targ=  1.09869e-07 trig=  1.04683e-07
i_vdd_avg           =  -9.43119e-07 from=  1.00000e-08 to=  3.30002e-07
power_avg_uw        =  1.65526e+00


Total analysis time (seconds) = 2.51568

Total elapsed time (seconds) = 2.605 

Total DRAM available = 16384.000 MB.
DRAM currently available =  196.453 MB.
Maximum ngspice program size =   19.656 MB.
Current ngspice program size =   19.656 MB.

