
Note: No compatibility mode selected!


Circuit: GF180MCU library cell aoi21_4 A1_to_ZN__A2=1,B=0

Doing analysis at TEMP = -11.592848 and TNOM = 27.000000

Using SPARSE 1.3 as Direct Linear Solver

Initial Transient Solution
--------------------------

Node                                   Voltage
----                                   -------
vdd                                    1.77931
a1                                           0
a2                                     1.77931
b                                            0
xu1.net_0_0                        1.90093e-13
zn                                     1.77931
xu1.net_0_1                        1.89279e-13
xu1.net_0_2                        1.90093e-13
xu1.net_0_3                        1.89279e-13
xu1.net_1                              1.77931
vfix_b#branch                                0
vfix_a2#branch                               0
vin#branch                                   0
vdd#branch                        -1.43147e-11

 Reference value :  1.99014e-08
 Reference value :  4.68075e-08
 Reference value :  7.51275e-08
 Reference value :  1.05282e-07
 Reference value :  1.34897e-07
 Reference value :  1.64462e-07
 Reference value :  1.93267e-07
 Reference value :  2.21662e-07
 Reference value :  2.51147e-07
 Reference value :  2.81042e-07
 Reference value :  3.10322e-07
 Reference value :  3.39947e-07
No. of Data Rows : 68032

  Measurements for Transient Analysis

tphl                =  2.19613e-09 targ=  2.81661e-08 trig=  2.59700e-08
tplh                =  4.72350e-09 targ=  1.04633e-07 trig=  9.99099e-08
i_vdd_avg           =  -1.30174e-06 from=  1.00000e-08 to=  3.30002e-07
power_avg_uw        =  2.31620e+00


Total analysis time (seconds) = 3.35786

Total elapsed time (seconds) = 3.433 

Total DRAM available = 16384.000 MB.
DRAM currently available =  217.172 MB.
Maximum ngspice program size =   17.781 MB.
Current ngspice program size =   17.781 MB.

