
Note: No compatibility mode selected!


Circuit: GF180MCU library cell xor2_1 A1_to_Z__A2=0

Doing analysis at TEMP = 54.230369 and TNOM = 27.000000

Using SPARSE 1.3 as Direct Linear Solver

Initial Transient Solution
--------------------------

Node                                   Voltage
----                                   -------
vdd                                      1.826
a1                                           0
a2                                           0
xu1.i                                    1.826
z                                  5.68218e-08
xu1.net_0                          3.44832e-09
xu1.net_2                                1.826
xu1.net_1                             0.808353
vfix_a2#branch                               0
vin#branch                                   0
vdd#branch                        -1.06373e-11

 Reference value :  3.91644e-08
 Reference value :  1.04571e-07
 Reference value :  1.68061e-07
 Reference value :  2.32524e-07
 Reference value :  2.96856e-07
No. of Data Rows : 68030

  Measurements for Transient Analysis

tplh                =  1.10526e-08 targ=  3.58235e-08 trig=  2.47709e-08
tphl                =  4.02313e-09 targ=  1.00336e-07 trig=  9.63128e-08
i_vdd_avg           =  -1.07407e-06 from=  1.00000e-08 to=  3.30001e-07
power_avg_uw        =  1.96125e+00


Total analysis time (seconds) = 1.5205

Total elapsed time (seconds) = 1.633 

Total DRAM available = 16384.000 MB.
DRAM currently available =  217.172 MB.
Maximum ngspice program size =   18.562 MB.
Current ngspice program size =   18.562 MB.

