
Note: No compatibility mode selected!


Circuit: GF180MCU library cell mux2_1 I0_to_Z__I1=0,S=0

Doing analysis at TEMP = 86.427226 and TNOM = 27.000000

Using SPARSE 1.3 as Direct Linear Solver

Initial Transient Solution
--------------------------

Node                                   Voltage
----                                   -------
vdd                                    1.93768
i0                                           0
i1                                           0
s                                            0
xu1.int04                              1.93768
z                                  1.71396e-08
xu1.net_1                            0.0350692
xu1.net_3                              1.39643
xu1.sel1_n                             1.93768
xu1.net_0                              1.93768
xu1.net_2                              1.93768
vfix_s#branch                                0
vfix_i1#branch                               0
vin#branch                                   0
vdd#branch                         -1.2555e-11

 Reference value :  4.04543e-08
 Reference value :  9.27543e-08
 Reference value :  1.43821e-07
 Reference value :  1.98099e-07
 Reference value :  2.52159e-07
 Reference value :  3.06831e-07
No. of Data Rows : 68030

  Measurements for Transient Analysis

tplh                =  9.87405e-09 targ=  3.80275e-08 trig=  2.81534e-08
tphl                =  7.02542e-09 targ=  1.13486e-07 trig=  1.06460e-07
i_vdd_avg           =  -2.16866e-06 from=  1.00000e-08 to=  3.30001e-07
power_avg_uw        =  4.20218e+00


Total analysis time (seconds) = 1.83298

Total elapsed time (seconds) = 1.918 

Total DRAM available = 16384.000 MB.
DRAM currently available =  112.031 MB.
Maximum ngspice program size =   16.969 MB.
Current ngspice program size =   16.969 MB.

