
Note: No compatibility mode selected!


Circuit: GF180MCU library cell mux2_1 I0_to_Z__I1=0,S=0

Doing analysis at TEMP = -32.402849 and TNOM = 27.000000

Using SPARSE 1.3 as Direct Linear Solver

Initial Transient Solution
--------------------------

Node                                   Voltage
----                                   -------
vdd                                    1.77914
i0                                           0
i1                                           0
s                                            0
xu1.int04                              1.77914
z                                  1.25358e-08
xu1.net_1                          1.21084e-05
xu1.net_3                               1.0831
xu1.sel1_n                             1.77914
xu1.net_0                              1.77914
xu1.net_2                              1.77914
vfix_s#branch                                0
vfix_i1#branch                               0
vin#branch                                   0
vdd#branch                        -9.41541e-12

 Reference value :  3.55013e-08
 Reference value :  8.89063e-08
 Reference value :  1.38035e-07
 Reference value :  1.90726e-07
 Reference value :  2.45606e-07
 Reference value :  3.00425e-07
No. of Data Rows : 68032

  Measurements for Transient Analysis

tplh                =  4.85954e-09 targ=  3.14640e-08 trig=  2.66044e-08
tphl                =  4.46262e-09 targ=  1.06276e-07 trig=  1.01813e-07
i_vdd_avg           =  -7.42689e-07 from=  1.00000e-08 to=  3.30000e-07
power_avg_uw        =  1.32135e+00


Total analysis time (seconds) = 1.76383

Total elapsed time (seconds) = 1.849 

Total DRAM available = 16384.000 MB.
DRAM currently available =  184.281 MB.
Maximum ngspice program size =   17.172 MB.
Current ngspice program size =   17.172 MB.

