
Note: No compatibility mode selected!


Circuit: GF180MCU library cell nand3_4 A1_to_ZN__A2=1,A3=1

Doing analysis at TEMP = 121.441920 and TNOM = 27.000000

Using SPARSE 1.3 as Direct Linear Solver

Initial Transient Solution
--------------------------

Node                                   Voltage
----                                   -------
vdd                                    1.86646
a1                                           0
a2                                     1.86646
a3                                     1.86646
xu1.net_1_3                        1.07744e-08
xu1.net_0                          2.15487e-08
xu1.net_1_2                        1.07744e-08
xu1.net_1_1                        1.07744e-08
xu1.net_1_0                        1.07744e-08
xu1.net_0_0                        2.15487e-08
zn                                     1.86646
vfix_a3#branch                               0
vfix_a2#branch                               0
vin#branch                                   0
vdd#branch                        -1.19678e-11

 Reference value :  2.34914e-08
 Reference value :  5.59862e-08
 Reference value :  8.83812e-08
 Reference value :  1.19335e-07
 Reference value :  1.51800e-07
 Reference value :  1.82350e-07
 Reference value :  2.11441e-07
 Reference value :  2.41636e-07
 Reference value :  2.71731e-07
 Reference value :  3.01355e-07
 Reference value :  3.30735e-07
No. of Data Rows : 68034

  Measurements for Transient Analysis

tphl                =  5.13084e-09 targ=  3.45827e-08 trig=  2.94519e-08
tplh                =  6.37842e-09 targ=  1.16734e-07 trig=  1.10356e-07
i_vdd_avg           =  -2.16072e-06 from=  1.00000e-08 to=  3.30005e-07
power_avg_uw        =  4.03290e+00


Total analysis time (seconds) = 3.0675

Total elapsed time (seconds) = 3.133 

Total DRAM available = 16384.000 MB.
DRAM currently available =  123.156 MB.
Maximum ngspice program size =   18.156 MB.
Current ngspice program size =   18.156 MB.

