
Note: No compatibility mode selected!


Circuit: GF180MCU library cell inv_4 I_to_ZN

Doing analysis at TEMP = 67.270072 and TNOM = 27.000000

Using SPARSE 1.3 as Direct Linear Solver

Initial Transient Solution
--------------------------

Node                                   Voltage
----                                   -------
vdd                                    1.67216
i                                            0
zn                                     1.67216
vin#branch                                   0
vdd#branch                        -6.87764e-12

 Reference value :  5.40599e-08
 Reference value :  1.36177e-07
 Reference value :  2.11640e-07
 Reference value :  2.90477e-07
No. of Data Rows : 68030

  Measurements for Transient Analysis

tphl                =  6.61995e-10 targ=  2.86282e-08 trig=  2.79662e-08
tplh                =  1.77233e-09 targ=  1.07671e-07 trig=  1.05899e-07
i_vdd_avg           =  -6.58725e-08 from=  1.00000e-08 to=  3.30002e-07
power_avg_uw        =  1.10150e-01


Total analysis time (seconds) = 1.22964

Total elapsed time (seconds) = 1.320 

Total DRAM available = 16384.000 MB.
DRAM currently available =  123.328 MB.
Maximum ngspice program size =   18.094 MB.
Current ngspice program size =   18.094 MB.

