
Note: No compatibility mode selected!


Circuit: GF180MCU library cell aoi21_1 A1_to_ZN__A2=1,B=0

Doing analysis at TEMP = 111.531420 and TNOM = 27.000000

Using SPARSE 1.3 as Direct Linear Solver

Initial Transient Solution
--------------------------

Node                                   Voltage
----                                   -------
vdd                                    1.86315
a1                                           0
a2                                     1.86315
b                                            0
xu1.net_0                          6.15664e-09
zn                                     1.86315
xu1.net_1                              1.86315
vfix_b#branch                                0
vfix_a2#branch                               0
vin#branch                                   0
vdd#branch                        -5.16003e-12

 Reference value :  6.18852e-08
 Reference value :  1.62363e-07
 Reference value :  2.59990e-07
No. of Data Rows : 68034

  Measurements for Transient Analysis

tphl                =  2.79082e-09 targ=  3.01247e-08 trig=  2.73338e-08
tplh                =  5.34211e-09 targ=  1.09344e-07 trig=  1.04002e-07
i_vdd_avg           =  -3.59337e-07 from=  1.00000e-08 to=  3.30003e-07
power_avg_uw        =  6.69498e-01


Total analysis time (seconds) = 0.975903

Total elapsed time (seconds) = 1.059 

Total DRAM available = 16384.000 MB.
DRAM currently available =  217.172 MB.
Maximum ngspice program size =   18.281 MB.
Current ngspice program size =   18.281 MB.

