
Note: No compatibility mode selected!


Circuit: GF180MCU library cell oai21_1 A1_to_ZN__A2=0,B=1

Doing analysis at TEMP = 103.441050 and TNOM = 27.000000

Using SPARSE 1.3 as Direct Linear Solver

Initial Transient Solution
--------------------------

Node                                   Voltage
----                                   -------
vdd                                    1.78475
a1                                           0
a2                                           0
b                                      1.78475
zn                                     1.78475
xu1.net_0                          7.86412e-09
xu1.net_1                              1.78475
vfix_b#branch                                0
vfix_a2#branch                               0
vin#branch                                   0
vdd#branch                        -4.38698e-12

 Reference value :  6.56370e-08
 Reference value :  1.64351e-07
 Reference value :  2.66077e-07
No. of Data Rows : 68032

  Measurements for Transient Analysis

tphl                =  1.15709e-09 targ=  2.81793e-08 trig=  2.70222e-08
tplh                =  2.39006e-09 targ=  1.05457e-07 trig=  1.03067e-07
i_vdd_avg           =  -6.78237e-08 from=  1.00000e-08 to=  3.30001e-07
power_avg_uw        =  1.21048e-01


Total analysis time (seconds) = 1.08112

Total elapsed time (seconds) = 1.164 

Total DRAM available = 16384.000 MB.
DRAM currently available =   67.828 MB.
Maximum ngspice program size =   17.484 MB.
Current ngspice program size =   17.484 MB.

