
Note: No compatibility mode selected!


Circuit: GF180MCU library cell xor2_1 A1_to_Z__A2=0

Doing analysis at TEMP = 77.069239 and TNOM = 27.000000

Using SPARSE 1.3 as Direct Linear Solver

Initial Transient Solution
--------------------------

Node                                   Voltage
----                                   -------
vdd                                    1.93444
a1                                           0
a2                                           0
xu1.i                                  1.93444
z                                  6.04205e-08
xu1.net_0                          1.26718e-08
xu1.net_2                              1.93444
xu1.net_1                             0.798063
vfix_a2#branch                               0
vin#branch                                   0
vdd#branch                        -1.22223e-11

 Reference value :  4.41774e-08
 Reference value :  1.07782e-07
 Reference value :  1.74222e-07
 Reference value :  2.35687e-07
 Reference value :  2.97847e-07
No. of Data Rows : 68032

  Measurements for Transient Analysis

tplh                =  5.97177e-09 targ=  3.43767e-08 trig=  2.84050e-08
tphl                =  4.35026e-09 targ=  1.11565e-07 trig=  1.07215e-07
i_vdd_avg           =  -6.51468e-07 from=  1.00000e-08 to=  3.30002e-07
power_avg_uw        =  1.26023e+00


Total analysis time (seconds) = 1.44331

Total elapsed time (seconds) = 1.525 

Total DRAM available = 16384.000 MB.
DRAM currently available =  246.250 MB.
Maximum ngspice program size =   16.625 MB.
Current ngspice program size =   16.625 MB.

