
Note: No compatibility mode selected!


Circuit: NAND2 seed characterization sample 4002014

Doing analysis at TEMP = -7.562820 and TNOM = 27.000000

Using SPARSE 1.3 as Direct Linear Solver

Initial Transient Solution
--------------------------

Node                                   Voltage
----                                   -------
vdd                                    1.75883
in                                           0
out                                    1.75883
nmid                                  0.039877
vin#branch                                   0
vdd#branch                        -1.97593e-12

 Reference value :  3.82755e-08
 Reference value :  9.23852e-08
No. of Data Rows : 60044

  Measurements for Transient Analysis

tphl                =  7.62487e-11 targ=  2.09836e-09 trig=  2.02211e-09
tplh                =  3.74934e-11 targ=  2.21038e-08 trig=  2.20663e-08
i_vdd_avg           =  -1.91159e-06 from=  5.00000e-09 to=  1.10001e-07
power_avg_uw        =  3.36217e+00


Total analysis time (seconds) = 0.543427

Total elapsed time (seconds) = 0.630 

Total DRAM available = 16384.000 MB.
DRAM currently available =  184.172 MB.
Maximum ngspice program size =   12.859 MB.
Current ngspice program size =   12.234 MB.

