
Note: No compatibility mode selected!


Circuit: NAND2 seed characterization sample 4002022

Doing analysis at TEMP = 13.831400 and TNOM = 27.000000

Using SPARSE 1.3 as Direct Linear Solver

Initial Transient Solution
--------------------------

Node                                   Voltage
----                                   -------
vdd                                    1.69245
in                                           0
out                                    1.69245
nmid                                 0.0396812
vin#branch                                   0
vdd#branch                        -1.91062e-12

 Reference value :  4.75129e-08
 Reference value :  1.09895e-07
No. of Data Rows : 60044

  Measurements for Transient Analysis

tphl                =  3.32462e-10 targ=  2.51639e-09 trig=  2.18393e-09
tplh                =  1.56464e-10 targ=  2.27083e-08 trig=  2.25518e-08
i_vdd_avg           =  -1.28276e-06 from=  5.00000e-09 to=  1.10001e-07
power_avg_uw        =  2.17101e+00


Total analysis time (seconds) = 0.460536

Total elapsed time (seconds) = 0.529 

Total DRAM available = 16384.000 MB.
DRAM currently available =  231.531 MB.
Maximum ngspice program size =   12.562 MB.
Current ngspice program size =   11.594 MB.

