
Note: No compatibility mode selected!


Circuit: NAND2 seed characterization sample 4002007

Doing analysis at TEMP = 71.636900 and TNOM = 27.000000

Using SPARSE 1.3 as Direct Linear Solver

Initial Transient Solution
--------------------------

Node                                   Voltage
----                                   -------
vdd                                    1.66331
in                                           0
out                                    1.66331
nmid                                 0.0536749
vin#branch                                   0
vdd#branch                        -4.95552e-11

 Reference value :  4.72808e-08
 Reference value :  1.09109e-07
No. of Data Rows : 60044

  Measurements for Transient Analysis

tphl                =  2.18555e-10 targ=  2.42344e-09 trig=  2.20489e-09
tplh                =  1.35028e-10 targ=  2.27497e-08 trig=  2.26147e-08
i_vdd_avg           =  -3.12180e-06 from=  5.00000e-09 to=  1.10001e-07
power_avg_uw        =  5.19252e+00


Total analysis time (seconds) = 0.466626

Total elapsed time (seconds) = 0.537 

Total DRAM available = 16384.000 MB.
DRAM currently available =  187.125 MB.
Maximum ngspice program size =   12.562 MB.
Current ngspice program size =   11.844 MB.

