
Note: No compatibility mode selected!


Circuit: NOR2 seed characterization sample 4002008

Doing analysis at TEMP = -0.016354 and TNOM = 27.000000

Using SPARSE 1.3 as Direct Linear Solver

Initial Transient Solution
--------------------------

Node                                   Voltage
----                                   -------
vdd                                     1.8891
in                                           0
out                                     1.8891
pmid                                    1.8891
vin#branch                                   0
vdd#branch                        -4.68848e-12

 Reference value :  4.69644e-08
 Reference value :  1.07714e-07
No. of Data Rows : 60047

  Measurements for Transient Analysis

tphl                =  2.31639e-10 targ=  2.41635e-09 trig=  2.18472e-09
tplh                =  7.35842e-10 targ=  2.32900e-08 trig=  2.25541e-08
i_vdd_avg           =  -5.24026e-06 from=  5.00000e-09 to=  1.10002e-07
power_avg_uw        =  9.89938e+00


Total analysis time (seconds) = 0.475085

Total elapsed time (seconds) = 0.544 

Total DRAM available = 16384.000 MB.
DRAM currently available =  187.125 MB.
Maximum ngspice program size =   13.109 MB.
Current ngspice program size =   13.109 MB.

