
Note: No compatibility mode selected!


Circuit: XOR2 seed characterization sample 4002004

Doing analysis at TEMP = -7.996520 and TNOM = 27.000000

Using SPARSE 1.3 as Direct Linear Solver

Initial Transient Solution
--------------------------

Node                                   Voltage
----                                   -------
vdd                                     1.6344
in                                           0
b                                       1.6344
abar                                    1.6344
bbar                                1.0044e-09
out                                     1.6344
vb#branch                                    0
vin#branch                         2.52515e-12
vdd#branch                        -1.14264e-11

 Reference value :  2.32859e-08
 Reference value :  5.91404e-08
 Reference value :  9.71264e-08
No. of Data Rows : 60047

  Measurements for Transient Analysis

tphl                =  1.74151e-10 targ=  2.30687e-09 trig=  2.13271e-09
tplh                =  1.78946e-10 targ=  2.25771e-08 trig=  2.23981e-08
i_vdd_avg           =  -2.79025e-06 from=  5.00000e-09 to=  1.10002e-07
power_avg_uw        =  4.56039e+00


Total analysis time (seconds) = 0.783226

Total elapsed time (seconds) = 0.877 

Total DRAM available = 16384.000 MB.
DRAM currently available =  182.266 MB.
Maximum ngspice program size =   13.219 MB.
Current ngspice program size =   12.625 MB.

