
Note: No compatibility mode selected!


Circuit: NAND2 seed characterization sample 4002037

Doing analysis at TEMP = 32.113600 and TNOM = 27.000000

Using SPARSE 1.3 as Direct Linear Solver

Initial Transient Solution
--------------------------

Node                                   Voltage
----                                   -------
vdd                                    1.80174
in                                           0
out                                    1.80174
nmid                                 0.0519453
vin#branch                                   0
vdd#branch                        -2.70437e-12

 Reference value :  3.92621e-08
 Reference value :  9.22706e-08
No. of Data Rows : 60044

  Measurements for Transient Analysis

tphl                =  5.76377e-10 targ=  2.81516e-09 trig=  2.23878e-09
tplh                =  2.76059e-10 targ=  2.29924e-08 trig=  2.27163e-08
i_vdd_avg           =  -4.36359e-06 from=  5.00000e-09 to=  1.10000e-07
power_avg_uw        =  7.86206e+00


Total analysis time (seconds) = 0.530723

Total elapsed time (seconds) = 0.610 

Total DRAM available = 16384.000 MB.
DRAM currently available =  251.562 MB.
Maximum ngspice program size =   12.562 MB.
Current ngspice program size =   11.969 MB.

