
Note: No compatibility mode selected!


Circuit: NAND2 seed characterization sample 4002003

Doing analysis at TEMP = 94.045300 and TNOM = 27.000000

Using SPARSE 1.3 as Direct Linear Solver

Initial Transient Solution
--------------------------

Node                                   Voltage
----                                   -------
vdd                                    1.92058
in                                           0
out                                    1.92058
nmid                                 0.0608594
vin#branch                                   0
vdd#branch                        -3.11746e-11

 Reference value :  4.37415e-08
 Reference value :  1.05902e-07
No. of Data Rows : 60044

  Measurements for Transient Analysis

tphl                =  5.39478e-10 targ=  2.75471e-09 trig=  2.21524e-09
tplh                =  2.94240e-10 targ=  2.29400e-08 trig=  2.26457e-08
i_vdd_avg           =  -3.44562e-06 from=  5.00000e-09 to=  1.10002e-07
power_avg_uw        =  6.61759e+00


Total analysis time (seconds) = 0.466009

Total elapsed time (seconds) = 0.550 

Total DRAM available = 16384.000 MB.
DRAM currently available =  182.266 MB.
Maximum ngspice program size =   13.203 MB.
Current ngspice program size =   12.594 MB.

