
Note: No compatibility mode selected!


Circuit: INV seed characterization sample 4002020

Doing analysis at TEMP = 1.920000 and TNOM = 27.000000

Using SPARSE 1.3 as Direct Linear Solver

Initial Transient Solution
--------------------------

Node                                   Voltage
----                                   -------
vdd                                     1.7561
in                                           0
out                                     1.7561
vin#branch                                   0
vdd#branch                        -3.70814e-12

 Reference value :  7.02961e-08
No. of Data Rows : 60044

  Measurements for Transient Analysis

tphl                =  1.62788e-10 targ=  2.33257e-09 trig=  2.16978e-09
tplh                =  1.88566e-10 targ=  2.26979e-08 trig=  2.25093e-08
i_vdd_avg           =  -3.97824e-06 from=  5.00000e-09 to=  1.10000e-07
power_avg_uw        =  6.98619e+00


Total analysis time (seconds) = 0.300823

Total elapsed time (seconds) = 0.373 

Total DRAM available = 16384.000 MB.
DRAM currently available =  246.500 MB.
Maximum ngspice program size =   12.562 MB.
Current ngspice program size =   11.844 MB.

