
Note: No compatibility mode selected!


Circuit: NAND2 seed characterization sample 4002005

Doing analysis at TEMP = 66.823700 and TNOM = 27.000000

Using SPARSE 1.3 as Direct Linear Solver

Initial Transient Solution
--------------------------

Node                                   Voltage
----                                   -------
vdd                                     1.7837
in                                           0
out                                     1.7837
nmid                                 0.0560677
vin#branch                                   0
vdd#branch                        -2.27611e-11

 Reference value :  4.76536e-08
 Reference value :  1.09032e-07
No. of Data Rows : 60041

  Measurements for Transient Analysis

tphl                =  3.46891e-10 targ=  2.37319e-09 trig=  2.02630e-09
tplh                =  1.05675e-10 targ=  2.21846e-08 trig=  2.20789e-08
i_vdd_avg           =  -5.94412e-06 from=  5.00000e-09 to=  1.10000e-07
power_avg_uw        =  1.06025e+01


Total analysis time (seconds) = 0.469857

Total elapsed time (seconds) = 0.539 

Total DRAM available = 16384.000 MB.
DRAM currently available =  187.125 MB.
Maximum ngspice program size =   12.562 MB.
Current ngspice program size =   11.625 MB.

