
Note: No compatibility mode selected!


Circuit: INV seed characterization sample 4002002

Doing analysis at TEMP = -18.325700 and TNOM = 27.000000

Using SPARSE 1.3 as Direct Linear Solver

Initial Transient Solution
--------------------------

Node                                   Voltage
----                                   -------
vdd                                      1.747
in                                           0
out                                      1.747
vin#branch                                   0
vdd#branch                         -1.8466e-12

 Reference value :  7.55615e-08
No. of Data Rows : 60047

  Measurements for Transient Analysis

tphl                =  1.53527e-10 targ=  2.19714e-09 trig=  2.04361e-09
tplh                =  2.62788e-10 targ=  2.23936e-08 trig=  2.21308e-08
i_vdd_avg           =  -2.33029e-06 from=  5.00000e-09 to=  1.10001e-07
power_avg_uw        =  4.07101e+00


Total analysis time (seconds) = 0.281642

Total elapsed time (seconds) = 0.350 

Total DRAM available = 16384.000 MB.
DRAM currently available =  182.266 MB.
Maximum ngspice program size =   12.562 MB.
Current ngspice program size =   11.656 MB.

