
Note: No compatibility mode selected!


Circuit: XOR2 seed characterization sample 4002048

Doing analysis at TEMP = 34.472200 and TNOM = 27.000000

Using SPARSE 1.3 as Direct Linear Solver

Initial Transient Solution
--------------------------

Node                                   Voltage
----                                   -------
vdd                                    1.90366
in                                           0
b                                      1.90366
abar                                   1.90366
bbar                               3.16862e-09
out                                    1.90366
vb#branch                                    0
vin#branch                         1.55157e-11
vdd#branch                        -3.52981e-11

 Reference value :  2.41693e-08
 Reference value :  5.84122e-08
 Reference value :  9.38282e-08
No. of Data Rows : 60047

  Measurements for Transient Analysis

tphl                =  3.98699e-10 targ=  2.55327e-09 trig=  2.15458e-09
tplh                =  5.21987e-10 targ=  2.29857e-08 trig=  2.24637e-08
i_vdd_avg           =  -5.66832e-06 from=  5.00000e-09 to=  1.10001e-07
power_avg_uw        =  1.07906e+01


Total analysis time (seconds) = 0.83245

Total elapsed time (seconds) = 0.912 

Total DRAM available = 16384.000 MB.
DRAM currently available =  259.828 MB.
Maximum ngspice program size =   12.578 MB.
Current ngspice program size =   11.938 MB.

