
Note: No compatibility mode selected!


Circuit: XOR2 seed characterization sample 4002034

Doing analysis at TEMP = 40.733100 and TNOM = 27.000000

Using SPARSE 1.3 as Direct Linear Solver

Initial Transient Solution
--------------------------

Node                                   Voltage
----                                   -------
vdd                                    1.94142
in                                           0
b                                      1.94142
abar                                   1.94142
bbar                               6.19086e-09
out                                    1.94142
vb#branch                                    0
vin#branch                         1.23861e-11
vdd#branch                        -3.12814e-11

 Reference value :  1.71288e-08
 Reference value :  4.66088e-08
 Reference value :  7.71867e-08
 Reference value :  1.12613e-07
No. of Data Rows : 60044

  Measurements for Transient Analysis

tphl                =  4.13578e-10 targ=  2.46849e-09 trig=  2.05491e-09
tplh                =  4.75320e-10 targ=  2.26401e-08 trig=  2.21647e-08
i_vdd_avg           =  -3.80847e-06 from=  5.00000e-09 to=  1.10001e-07
power_avg_uw        =  7.39384e+00


Total analysis time (seconds) = 0.924269

Total elapsed time (seconds) = 1.040 

Total DRAM available = 16384.000 MB.
DRAM currently available =  226.391 MB.
Maximum ngspice program size =   12.547 MB.
Current ngspice program size =   12.109 MB.

