
Note: No compatibility mode selected!


Circuit: INV seed characterization sample 4002028

Doing analysis at TEMP = 58.223600 and TNOM = 27.000000

Using SPARSE 1.3 as Direct Linear Solver

Initial Transient Solution
--------------------------

Node                                   Voltage
----                                   -------
vdd                                    1.63895
in                                           0
out                                    1.63895
vin#branch                                   0
vdd#branch                        -6.14623e-11

 Reference value :  6.48882e-08
No. of Data Rows : 60041

  Measurements for Transient Analysis

tphl                =  8.62900e-11 targ=  2.28459e-09 trig=  2.19830e-09
tplh                =  1.35460e-10 targ=  2.27304e-08 trig=  2.25949e-08
i_vdd_avg           =  -7.79213e-07 from=  5.00000e-09 to=  1.10000e-07
power_avg_uw        =  1.27709e+00


Total analysis time (seconds) = 0.323107

Total elapsed time (seconds) = 0.399 

Total DRAM available = 16384.000 MB.
DRAM currently available =  219.812 MB.
Maximum ngspice program size =   12.562 MB.
Current ngspice program size =   11.625 MB.

