
Note: No compatibility mode selected!


Circuit: INV seed characterization sample 4002010

Doing analysis at TEMP = 97.828200 and TNOM = 27.000000

Using SPARSE 1.3 as Direct Linear Solver

Initial Transient Solution
--------------------------

Node                                   Voltage
----                                   -------
vdd                                    1.80545
in                                           0
out                                    1.80545
vin#branch                                   0
vdd#branch                        -1.18116e-09

 Reference value :  6.18557e-08
No. of Data Rows : 60041

  Measurements for Transient Analysis

tphl                =  5.55530e-11 targ=  2.07593e-09 trig=  2.02038e-09
tplh                =  5.16221e-11 targ=  2.21128e-08 trig=  2.20611e-08
i_vdd_avg           =  -2.41756e-06 from=  5.00000e-09 to=  1.10001e-07
power_avg_uw        =  4.36479e+00


Total analysis time (seconds) = 0.344489

Total elapsed time (seconds) = 0.423 

Total DRAM available = 16384.000 MB.
DRAM currently available =  163.797 MB.
Maximum ngspice program size =   12.891 MB.
Current ngspice program size =   12.391 MB.

