
Note: No compatibility mode selected!


Circuit: NOR2 seed characterization sample 4311027

Doing analysis at TEMP = 38.402300 and TNOM = 27.000000

Using SPARSE 1.3 as Direct Linear Solver

Initial Transient Solution
--------------------------

Node                                   Voltage
----                                   -------
vdd                                    1.78409
in                                           0
out                                    1.78409
pmid                                   1.78409
vin#branch                                   0
vdd#branch                        -3.92555e-12

 Reference value :  4.65293e-08
 Reference value :  1.07048e-07
No. of Data Rows : 60044

  Measurements for Transient Analysis

tphl                =  7.70670e-11 targ=  2.11420e-09 trig=  2.03713e-09
tplh                =  2.61066e-10 targ=  2.23725e-08 trig=  2.21114e-08
i_vdd_avg           =  -3.55928e-06 from=  5.00000e-09 to=  1.10002e-07
power_avg_uw        =  6.35008e+00


Total analysis time (seconds) = 0.475944

Total elapsed time (seconds) = 0.547 

Total DRAM available = 16384.000 MB.
DRAM currently available =  131.125 MB.
Maximum ngspice program size =   12.797 MB.
Current ngspice program size =   12.266 MB.

