
Note: No compatibility mode selected!


Circuit: INV seed characterization sample 4311037

Doing analysis at TEMP = 72.158600 and TNOM = 27.000000

Using SPARSE 1.3 as Direct Linear Solver

Initial Transient Solution
--------------------------

Node                                   Voltage
----                                   -------
vdd                                    1.74876
in                                           0
out                                    1.74876
vin#branch                                   0
vdd#branch                        -3.84207e-12

 Reference value :  7.17426e-08
No. of Data Rows : 60044

  Measurements for Transient Analysis

tphl                =  7.69599e-11 targ=  2.12686e-09 trig=  2.04990e-09
tplh                =  9.88050e-11 targ=  2.22485e-08 trig=  2.21497e-08
i_vdd_avg           =  -1.42963e-06 from=  5.00000e-09 to=  1.10001e-07
power_avg_uw        =  2.50008e+00


Total analysis time (seconds) = 0.290932

Total elapsed time (seconds) = 0.366 

Total DRAM available = 16384.000 MB.
DRAM currently available =  147.812 MB.
Maximum ngspice program size =   13.906 MB.
Current ngspice program size =   13.906 MB.

