
Note: No compatibility mode selected!


Circuit: NOR2 seed characterization sample 4311007

Doing analysis at TEMP = 48.807200 and TNOM = 27.000000

Using SPARSE 1.3 as Direct Linear Solver

Initial Transient Solution
--------------------------

Node                                   Voltage
----                                   -------
vdd                                    1.65511
in                                           0
out                                    1.65511
pmid                                   1.65511
vin#branch                                   0
vdd#branch                         -3.6352e-12

 Reference value :  4.60658e-08
 Reference value :  1.06233e-07
No. of Data Rows : 60041

  Measurements for Transient Analysis

tphl                =  2.80668e-10 targ=  2.49907e-09 trig=  2.21841e-09
tplh                =  1.10206e-09 targ=  2.37573e-08 trig=  2.26552e-08
i_vdd_avg           =  -4.24162e-06 from=  5.00000e-09 to=  1.10001e-07
power_avg_uw        =  7.02035e+00


Total analysis time (seconds) = 0.480386

Total elapsed time (seconds) = 0.550 

Total DRAM available = 16384.000 MB.
DRAM currently available =  133.547 MB.
Maximum ngspice program size =   12.969 MB.
Current ngspice program size =   12.969 MB.

