
Note: No compatibility mode selected!


Circuit: NAND2 seed characterization sample 4311038

Doing analysis at TEMP = 2.035780 and TNOM = 27.000000

Using SPARSE 1.3 as Direct Linear Solver

Initial Transient Solution
--------------------------

Node                                   Voltage
----                                   -------
vdd                                    1.85988
in                                           0
out                                    1.85988
nmid                                0.00150846
vin#branch                                   0
vdd#branch                        -1.87416e-12

 Reference value :  4.52343e-08
 Reference value :  1.06908e-07
No. of Data Rows : 60047

  Measurements for Transient Analysis

tphl                =  2.14356e-10 targ=  2.33202e-09 trig=  2.11766e-09
tplh                =  1.22808e-10 targ=  2.24758e-08 trig=  2.23530e-08
i_vdd_avg           =  -2.31728e-06 from=  5.00000e-09 to=  1.10002e-07
power_avg_uw        =  4.30986e+00


Total analysis time (seconds) = 0.469889

Total elapsed time (seconds) = 0.547 

Total DRAM available = 16384.000 MB.
DRAM currently available =  138.547 MB.
Maximum ngspice program size =   12.797 MB.
Current ngspice program size =   12.250 MB.

