
Note: No compatibility mode selected!


Circuit: XOR2 seed characterization sample 4311028

Doing analysis at TEMP = -10.310800 and TNOM = 27.000000

Using SPARSE 1.3 as Direct Linear Solver

Initial Transient Solution
--------------------------

Node                                   Voltage
----                                   -------
vdd                                    1.76899
in                                           0
b                                      1.76899
abar                                   1.76899
bbar                               1.29817e-09
out                                    1.76899
vb#branch                                    0
vin#branch                         1.78046e-12
vdd#branch                        -1.06765e-11

 Reference value :  2.63749e-08
 Reference value :  6.13279e-08
 Reference value :  9.84839e-08
No. of Data Rows : 60041

  Measurements for Transient Analysis

tphl                =  2.55618e-10 targ=  2.43209e-09 trig=  2.17647e-09
tplh                =  3.56224e-10 targ=  2.28856e-08 trig=  2.25294e-08
i_vdd_avg           =  -2.84249e-06 from=  5.00000e-09 to=  1.10001e-07
power_avg_uw        =  5.02833e+00


Total analysis time (seconds) = 0.80167

Total elapsed time (seconds) = 0.875 

Total DRAM available = 16384.000 MB.
DRAM currently available =  142.594 MB.
Maximum ngspice program size =   12.578 MB.
Current ngspice program size =   12.406 MB.

