
Note: No compatibility mode selected!


Circuit: NOR2 seed characterization sample 4311047

Doing analysis at TEMP = 57.636600 and TNOM = 27.000000

Using SPARSE 1.3 as Direct Linear Solver

Initial Transient Solution
--------------------------

Node                                   Voltage
----                                   -------
vdd                                     1.8013
in                                           0
out                                     1.8013
pmid                                    1.8013
vin#branch                                   0
vdd#branch                        -5.04863e-12

 Reference value :  4.66566e-08
 Reference value :  1.06984e-07
No. of Data Rows : 60044

  Measurements for Transient Analysis

tphl                =  7.73622e-11 targ=  2.21514e-09 trig=  2.13778e-09
tplh                =  2.16048e-10 targ=  2.26294e-08 trig=  2.24133e-08
i_vdd_avg           =  -1.42183e-06 from=  5.00000e-09 to=  1.10000e-07
power_avg_uw        =  2.56113e+00


Total analysis time (seconds) = 0.477077

Total elapsed time (seconds) = 0.547 

Total DRAM available = 16384.000 MB.
DRAM currently available =  126.594 MB.
Maximum ngspice program size =   12.562 MB.
Current ngspice program size =   11.625 MB.

