
Note: No compatibility mode selected!


Circuit: NOR2 seed characterization sample 4311043

Doing analysis at TEMP = 65.716600 and TNOM = 27.000000

Using SPARSE 1.3 as Direct Linear Solver

Initial Transient Solution
--------------------------

Node                                   Voltage
----                                   -------
vdd                                    1.76572
in                                           0
out                                    1.76572
pmid                                   1.76572
vin#branch                                   0
vdd#branch                        -6.31926e-12

 Reference value :  4.61140e-08
 Reference value :  1.05917e-07
No. of Data Rows : 60047

  Measurements for Transient Analysis

tphl                =  1.24285e-10 targ=  2.21779e-09 trig=  2.09350e-09
tplh                =  4.14059e-10 targ=  2.26946e-08 trig=  2.22805e-08
i_vdd_avg           =  -4.81440e-06 from=  5.00000e-09 to=  1.10001e-07
power_avg_uw        =  8.50088e+00


Total analysis time (seconds) = 0.480232

Total elapsed time (seconds) = 0.551 

Total DRAM available = 16384.000 MB.
DRAM currently available =  140.016 MB.
Maximum ngspice program size =   12.562 MB.
Current ngspice program size =   11.844 MB.

