
Note: No compatibility mode selected!


Circuit: XOR2 seed characterization sample 4311016

Doing analysis at TEMP = 67.217000 and TNOM = 27.000000

Using SPARSE 1.3 as Direct Linear Solver

Initial Transient Solution
--------------------------

Node                                   Voltage
----                                   -------
vdd                                    1.96349
in                                           0
b                                      1.96349
abar                                   1.96349
bbar                               1.31092e-09
out                                    1.96349
vb#branch                                    0
vin#branch                         4.20601e-12
vdd#branch                        -1.58217e-11

 Reference value :  2.70174e-08
 Reference value :  6.24382e-08
 Reference value :  1.00036e-07
No. of Data Rows : 60047

  Measurements for Transient Analysis

tphl                =  2.57782e-10 targ=  2.40339e-09 trig=  2.14561e-09
tplh                =  3.04250e-10 targ=  2.27411e-08 trig=  2.24368e-08
i_vdd_avg           =  -5.13474e-06 from=  5.00000e-09 to=  1.10001e-07
power_avg_uw        =  1.00820e+01


Total analysis time (seconds) = 0.792512

Total elapsed time (seconds) = 0.862 

Total DRAM available = 16384.000 MB.
DRAM currently available =  150.250 MB.
Maximum ngspice program size =   12.578 MB.
Current ngspice program size =   12.062 MB.

