
Note: No compatibility mode selected!


Circuit: INV seed characterization sample 4311045

Doing analysis at TEMP = 50.122100 and TNOM = 27.000000

Using SPARSE 1.3 as Direct Linear Solver

Initial Transient Solution
--------------------------

Node                                   Voltage
----                                   -------
vdd                                    1.79035
in                                           0
out                                    1.79035
vin#branch                                   0
vdd#branch                        -2.17042e-12

 Reference value :  7.22273e-08
No. of Data Rows : 60044

  Measurements for Transient Analysis

tphl                =  1.93720e-10 targ=  2.44280e-09 trig=  2.24908e-09
tplh                =  2.41768e-10 targ=  2.29890e-08 trig=  2.27472e-08
i_vdd_avg           =  -2.09019e-06 from=  5.00000e-09 to=  1.10001e-07
power_avg_uw        =  3.74217e+00


Total analysis time (seconds) = 0.299218

Total elapsed time (seconds) = 0.370 

Total DRAM available = 16384.000 MB.
DRAM currently available =  151.078 MB.
Maximum ngspice program size =   12.562 MB.
Current ngspice program size =   11.656 MB.

