
Note: No compatibility mode selected!


Circuit: NAND2 seed characterization sample 4311046

Doing analysis at TEMP = 55.372800 and TNOM = 27.000000

Using SPARSE 1.3 as Direct Linear Solver

Initial Transient Solution
--------------------------

Node                                   Voltage
----                                   -------
vdd                                    1.69423
in                                           0
out                                    1.69423
nmid                                 0.0283935
vin#branch                                   0
vdd#branch                        -1.82114e-12

 Reference value :  4.45949e-08
 Reference value :  1.05641e-07
No. of Data Rows : 60044

  Measurements for Transient Analysis

tphl                =  4.37064e-10 targ=  2.45601e-09 trig=  2.01895e-09
tplh                =  1.94853e-10 targ=  2.22517e-08 trig=  2.20568e-08
i_vdd_avg           =  -3.56864e-06 from=  5.00000e-09 to=  1.10001e-07
power_avg_uw        =  6.04610e+00


Total analysis time (seconds) = 0.473256

Total elapsed time (seconds) = 0.551 

Total DRAM available = 16384.000 MB.
DRAM currently available =  126.641 MB.
Maximum ngspice program size =   12.562 MB.
Current ngspice program size =   11.969 MB.

