
Note: No compatibility mode selected!


Circuit: INV seed characterization sample 4311021

Doing analysis at TEMP = 36.263400 and TNOM = 27.000000

Using SPARSE 1.3 as Direct Linear Solver

Initial Transient Solution
--------------------------

Node                                   Voltage
----                                   -------
vdd                                    1.90054
in                                           0
out                                    1.90054
vin#branch                                   0
vdd#branch                        -1.94892e-12

 Reference value :  7.31402e-08
No. of Data Rows : 60044

  Measurements for Transient Analysis

tphl                =  1.59791e-10 targ=  2.26158e-09 trig=  2.10179e-09
tplh                =  1.68017e-10 targ=  2.24734e-08 trig=  2.23054e-08
i_vdd_avg           =  -1.26763e-06 from=  5.00000e-09 to=  1.10000e-07
power_avg_uw        =  2.40919e+00


Total analysis time (seconds) = 0.296582

Total elapsed time (seconds) = 0.365 

Total DRAM available = 16384.000 MB.
DRAM currently available =  169.812 MB.
Maximum ngspice program size =   12.562 MB.
Current ngspice program size =   11.594 MB.

