
Note: No compatibility mode selected!


Circuit: NAND2 seed characterization sample 4311014

Doing analysis at TEMP = 60.755600 and TNOM = 27.000000

Using SPARSE 1.3 as Direct Linear Solver

Initial Transient Solution
--------------------------

Node                                   Voltage
----                                   -------
vdd                                     1.7803
in                                           0
out                                     1.7803
nmid                                 0.0369767
vin#branch                                   0
vdd#branch                        -2.01258e-12

 Reference value :  4.75045e-08
 Reference value :  1.09530e-07
No. of Data Rows : 60044

  Measurements for Transient Analysis

tphl                =  3.84278e-10 targ=  2.59004e-09 trig=  2.20576e-09
tplh                =  2.28326e-10 targ=  2.28456e-08 trig=  2.26173e-08
i_vdd_avg           =  -3.86954e-06 from=  5.00000e-09 to=  1.10000e-07
power_avg_uw        =  6.88895e+00


Total analysis time (seconds) = 0.466876

Total elapsed time (seconds) = 0.536 

Total DRAM available = 16384.000 MB.
DRAM currently available =  132.453 MB.
Maximum ngspice program size =   12.562 MB.
Current ngspice program size =   11.812 MB.

