
Note: No compatibility mode selected!


Circuit: XOR2 seed characterization sample 4311024

Doing analysis at TEMP = 90.091500 and TNOM = 27.000000

Using SPARSE 1.3 as Direct Linear Solver

Initial Transient Solution
--------------------------

Node                                   Voltage
----                                   -------
vdd                                    1.71248
in                                           0
b                                      1.71248
abar                                   1.71248
bbar                               2.65751e-09
out                                    1.71248
vb#branch                                    0
vin#branch                         6.47807e-12
vdd#branch                        -1.87735e-11

 Reference value :  2.60483e-08
 Reference value :  6.08977e-08
 Reference value :  9.80097e-08
No. of Data Rows : 60041

  Measurements for Transient Analysis

tphl                =  3.83263e-10 targ=  2.46560e-09 trig=  2.08233e-09
tplh                =  4.68208e-10 targ=  2.27152e-08 trig=  2.22470e-08
i_vdd_avg           =  -3.85068e-06 from=  5.00000e-09 to=  1.10000e-07
power_avg_uw        =  6.59421e+00


Total analysis time (seconds) = 0.802726

Total elapsed time (seconds) = 0.876 

Total DRAM available = 16384.000 MB.
DRAM currently available =  151.516 MB.
Maximum ngspice program size =   12.578 MB.
Current ngspice program size =   11.938 MB.

