
Note: No compatibility mode selected!


Circuit: XOR2 seed characterization sample 4311004

Doing analysis at TEMP = 80.281300 and TNOM = 27.000000

Using SPARSE 1.3 as Direct Linear Solver

Initial Transient Solution
--------------------------

Node                                   Voltage
----                                   -------
vdd                                    1.65596
in                                           0
b                                      1.65596
abar                                   1.65596
bbar                               1.41113e-09
out                                    1.65596
vb#branch                                    0
vin#branch                         6.12522e-12
vdd#branch                        -1.79527e-11

 Reference value :  2.47727e-08
 Reference value :  5.92038e-08
 Reference value :  9.55198e-08
No. of Data Rows : 60041

  Measurements for Transient Analysis

tphl                =  2.99372e-10 targ=  2.54380e-09 trig=  2.24442e-09
tplh                =  4.50048e-10 targ=  2.31833e-08 trig=  2.27333e-08
i_vdd_avg           =  -3.02841e-06 from=  5.00000e-09 to=  1.10001e-07
power_avg_uw        =  5.01492e+00


Total analysis time (seconds) = 0.82033

Total elapsed time (seconds) = 0.896 

Total DRAM available = 16384.000 MB.
DRAM currently available =  140.500 MB.
Maximum ngspice program size =   13.969 MB.
Current ngspice program size =   13.969 MB.

