
Note: No compatibility mode selected!


Circuit: NOR2 seed characterization sample 4112047

Doing analysis at TEMP = 42.100800 and TNOM = 27.000000

Using SPARSE 1.3 as Direct Linear Solver

Initial Transient Solution
--------------------------

Node                                   Voltage
----                                   -------
vdd                                    1.93334
in                                           0
out                                    1.93334
pmid                                   1.93334
vin#branch                                   0
vdd#branch                        -4.25043e-12

 Reference value :  4.19488e-08
 Reference value :  9.87249e-08
No. of Data Rows : 60044

  Measurements for Transient Analysis

tphl                =  1.04390e-10 targ=  2.30533e-09 trig=  2.20094e-09
tplh                =  2.54974e-10 targ=  2.28578e-08 trig=  2.26028e-08
i_vdd_avg           =  -1.89531e-06 from=  5.00000e-09 to=  1.10001e-07
power_avg_uw        =  3.66427e+00


Total analysis time (seconds) = 0.51766

Total elapsed time (seconds) = 0.594 

Total DRAM available = 16384.000 MB.
DRAM currently available =  266.359 MB.
Maximum ngspice program size =   12.875 MB.
Current ngspice program size =   12.875 MB.

