
Note: No compatibility mode selected!


Circuit: NOR2 seed characterization sample 4112048

Doing analysis at TEMP = 96.428300 and TNOM = 27.000000

Using SPARSE 1.3 as Direct Linear Solver

Initial Transient Solution
--------------------------

Node                                   Voltage
----                                   -------
vdd                                    1.69982
in                                           0
out                                    1.69982
pmid                                   1.69982
vin#branch                                   0
vdd#branch                        -8.49231e-12

 Reference value :  4.23977e-08
 Reference value :  9.98877e-08
No. of Data Rows : 60041

  Measurements for Transient Analysis

tphl                =  1.87213e-10 targ=  2.37858e-09 trig=  2.19137e-09
tplh                =  7.69047e-10 targ=  2.33432e-08 trig=  2.25741e-08
i_vdd_avg           =  -1.66186e-06 from=  5.00000e-09 to=  1.10000e-07
power_avg_uw        =  2.82486e+00


Total analysis time (seconds) = 0.511038

Total elapsed time (seconds) = 0.587 

Total DRAM available = 16384.000 MB.
DRAM currently available =  266.359 MB.
Maximum ngspice program size =   12.562 MB.
Current ngspice program size =   11.844 MB.

