
Note: No compatibility mode selected!


Circuit: NOR2 seed characterization sample 4112001

Doing analysis at TEMP = 83.598600 and TNOM = 27.000000

Using SPARSE 1.3 as Direct Linear Solver

Initial Transient Solution
--------------------------

Node                                   Voltage
----                                   -------
vdd                                    1.96077
in                                           0
out                                    1.96077
pmid                                   1.96077
vin#branch                                   0
vdd#branch                        -1.47382e-11

 Reference value :  4.63144e-08
 Reference value :  1.07306e-07
No. of Data Rows : 60044

  Measurements for Transient Analysis

tphl                =  1.06881e-10 targ=  2.14073e-09 trig=  2.03385e-09
tplh                =  3.43523e-10 targ=  2.24451e-08 trig=  2.21016e-08
i_vdd_avg           =  -7.42221e-06 from=  5.00000e-09 to=  1.10000e-07
power_avg_uw        =  1.45532e+01


Total analysis time (seconds) = 0.475024

Total elapsed time (seconds) = 0.545 

Total DRAM available = 16384.000 MB.
DRAM currently available =  270.031 MB.
Maximum ngspice program size =   12.562 MB.
Current ngspice program size =   11.688 MB.

