
Note: No compatibility mode selected!


Circuit: INV seed characterization sample 4112035

Doing analysis at TEMP = 49.768200 and TNOM = 27.000000

Using SPARSE 1.3 as Direct Linear Solver

Initial Transient Solution
--------------------------

Node                                   Voltage
----                                   -------
vdd                                    1.83074
in                                           0
out                                    1.83074
vin#branch                                   0
vdd#branch                        -2.19736e-12

 Reference value :  6.41472e-08
No. of Data Rows : 60044

  Measurements for Transient Analysis

tphl                =  6.75512e-11 targ=  2.08761e-09 trig=  2.02006e-09
tplh                =  8.74591e-11 targ=  2.21476e-08 trig=  2.20602e-08
i_vdd_avg           =  -1.49871e-06 from=  5.00000e-09 to=  1.10001e-07
power_avg_uw        =  2.74374e+00


Total analysis time (seconds) = 0.328596

Total elapsed time (seconds) = 0.404 

Total DRAM available = 16384.000 MB.
DRAM currently available =  275.609 MB.
Maximum ngspice program size =   12.562 MB.
Current ngspice program size =   11.906 MB.

