
Note: No compatibility mode selected!


Circuit: NOR2 seed characterization sample 4112045

Doing analysis at TEMP = 11.850000 and TNOM = 27.000000

Using SPARSE 1.3 as Direct Linear Solver

Initial Transient Solution
--------------------------

Node                                   Voltage
----                                   -------
vdd                                    1.78153
in                                           0
out                                    1.78153
pmid                                   1.78153
vin#branch                                   0
vdd#branch                        -3.61245e-12

 Reference value :  4.17100e-08
 Reference value :  9.87005e-08
No. of Data Rows : 60047

  Measurements for Transient Analysis

tphl                =  1.51949e-10 targ=  2.29369e-09 trig=  2.14174e-09
tplh                =  6.09346e-10 targ=  2.30346e-08 trig=  2.24252e-08
i_vdd_avg           =  -4.81611e-06 from=  5.00000e-09 to=  1.10002e-07
power_avg_uw        =  8.58004e+00


Total analysis time (seconds) = 0.516067

Total elapsed time (seconds) = 0.594 

Total DRAM available = 16384.000 MB.
DRAM currently available =  266.359 MB.
Maximum ngspice program size =   12.844 MB.
Current ngspice program size =   12.844 MB.

