
Note: No compatibility mode selected!


Circuit: XOR2 seed characterization sample 4112034

Doing analysis at TEMP = 87.461800 and TNOM = 27.000000

Using SPARSE 1.3 as Direct Linear Solver

Initial Transient Solution
--------------------------

Node                                   Voltage
----                                   -------
vdd                                    1.76653
in                                           0
b                                      1.76653
abar                                   1.76653
bbar                               8.48639e-09
out                                    1.76653
vb#branch                                    0
vin#branch                         2.77902e-12
vdd#branch                         -1.2533e-11

 Reference value :  2.22220e-08
 Reference value :  5.33000e-08
 Reference value :  8.70420e-08
No. of Data Rows : 60041

  Measurements for Transient Analysis

tphl                =  6.94122e-10 targ=  2.78060e-09 trig=  2.08648e-09
tplh                =  1.12041e-09 targ=  2.33798e-08 trig=  2.22594e-08
i_vdd_avg           =  -2.28447e-06 from=  5.00000e-09 to=  1.10001e-07
power_avg_uw        =  4.03558e+00


Total analysis time (seconds) = 0.910066

Total elapsed time (seconds) = 0.989 

Total DRAM available = 16384.000 MB.
DRAM currently available =  262.109 MB.
Maximum ngspice program size =   12.578 MB.
Current ngspice program size =   11.656 MB.

