
Note: No compatibility mode selected!


Circuit: NOR2 seed characterization sample 4112046

Doing analysis at TEMP = 65.463800 and TNOM = 27.000000

Using SPARSE 1.3 as Direct Linear Solver

Initial Transient Solution
--------------------------

Node                                   Voltage
----                                   -------
vdd                                    1.82425
in                                           0
out                                    1.82425
pmid                                   1.82425
vin#branch                                   0
vdd#branch                        -5.00972e-12

 Reference value :  4.21410e-08
 Reference value :  9.95315e-08
No. of Data Rows : 60044

  Measurements for Transient Analysis

tphl                =  1.25514e-10 targ=  2.22475e-09 trig=  2.09924e-09
tplh                =  6.45038e-10 targ=  2.29427e-08 trig=  2.22977e-08
i_vdd_avg           =  -2.70448e-06 from=  5.00000e-09 to=  1.10002e-07
power_avg_uw        =  4.93366e+00


Total analysis time (seconds) = 0.512675

Total elapsed time (seconds) = 0.589 

Total DRAM available = 16384.000 MB.
DRAM currently available =  266.359 MB.
Maximum ngspice program size =   12.609 MB.
Current ngspice program size =   11.703 MB.

