
Note: No compatibility mode selected!


Circuit: XOR2 seed characterization sample 4112006

Doing analysis at TEMP = 35.762500 and TNOM = 27.000000

Using SPARSE 1.3 as Direct Linear Solver

Initial Transient Solution
--------------------------

Node                                   Voltage
----                                   -------
vdd                                    1.80899
in                                           0
b                                      1.80899
abar                                   1.80899
bbar                               7.78374e-09
out                                    1.80899
vb#branch                                    0
vin#branch                         1.84219e-12
vdd#branch                        -1.09579e-11

 Reference value :  2.22844e-08
 Reference value :  5.36997e-08
 Reference value :  8.78077e-08
No. of Data Rows : 60041

  Measurements for Transient Analysis

tphl                =  1.34874e-09 targ=  3.41909e-09 trig=  2.07036e-09
tplh                =  2.21709e-09 targ=  2.44282e-08 trig=  2.22111e-08
i_vdd_avg           =  -4.79274e-06 from=  5.00000e-09 to=  1.10000e-07
power_avg_uw        =  8.67003e+00


Total analysis time (seconds) = 0.877996

Total elapsed time (seconds) = 0.958 

Total DRAM available = 16384.000 MB.
DRAM currently available =  261.859 MB.
Maximum ngspice program size =   12.578 MB.
Current ngspice program size =   11.891 MB.

