
Note: No compatibility mode selected!


Circuit: XOR2 seed characterization sample 4112044

Doing analysis at TEMP = -16.068400 and TNOM = 27.000000

Using SPARSE 1.3 as Direct Linear Solver

Initial Transient Solution
--------------------------

Node                                   Voltage
----                                   -------
vdd                                    1.91641
in                                           0
b                                      1.91641
abar                                   1.91641
bbar                               1.06209e-09
out                                    1.91641
vb#branch                                    0
vin#branch                         1.92746e-12
vdd#branch                        -1.15603e-11

 Reference value :  2.64413e-08
 Reference value :  6.14372e-08
 Reference value :  9.59752e-08
No. of Data Rows : 60044

  Measurements for Transient Analysis

tphl                =  1.85707e-10 targ=  2.34878e-09 trig=  2.16308e-09
tplh                =  2.45287e-10 targ=  2.27345e-08 trig=  2.24892e-08
i_vdd_avg           =  -2.59712e-06 from=  5.00000e-09 to=  1.10001e-07
power_avg_uw        =  4.97714e+00


Total analysis time (seconds) = 0.825253

Total elapsed time (seconds) = 0.896 

Total DRAM available = 16384.000 MB.
DRAM currently available =  250.359 MB.
Maximum ngspice program size =   12.578 MB.
Current ngspice program size =   11.625 MB.

