
Note: No compatibility mode selected!


Circuit: NAND2 seed characterization sample 4112030

Doing analysis at TEMP = 61.953700 and TNOM = 27.000000

Using SPARSE 1.3 as Direct Linear Solver

Initial Transient Solution
--------------------------

Node                                   Voltage
----                                   -------
vdd                                    1.89569
in                                           0
out                                    1.89569
nmid                                 0.0252705
vin#branch                                   0
vdd#branch                        -1.99276e-12

 Reference value :  4.49914e-08
 Reference value :  1.03982e-07
No. of Data Rows : 60044

  Measurements for Transient Analysis

tphl                =  1.15441e-09 targ=  3.18061e-09 trig=  2.02620e-09
tplh                =  3.15123e-10 targ=  2.23937e-08 trig=  2.20786e-08
i_vdd_avg           =  -5.41825e-06 from=  5.00000e-09 to=  1.10002e-07
power_avg_uw        =  1.02713e+01


Total analysis time (seconds) = 0.493415

Total elapsed time (seconds) = 0.568 

Total DRAM available = 16384.000 MB.
DRAM currently available =  255.500 MB.
Maximum ngspice program size =   12.562 MB.
Current ngspice program size =   11.875 MB.

