
Note: No compatibility mode selected!


Circuit: XOR2 seed characterization sample 4222033

Doing analysis at TEMP = 22.594200 and TNOM = 27.000000

Using SPARSE 1.3 as Direct Linear Solver

Initial Transient Solution
--------------------------

Node                                   Voltage
----                                   -------
vdd                                    1.80676
in                                           0
b                                      1.80676
abar                                   1.80676
bbar                               1.60437e-09
out                                    1.80676
vb#branch                                    0
vin#branch                         2.36501e-12
vdd#branch                        -1.18699e-11

 Reference value :  2.27685e-08
 Reference value :  5.74347e-08
 Reference value :  9.14787e-08
No. of Data Rows : 60044

  Measurements for Transient Analysis

tphl                =  1.70425e-10 targ=  2.31129e-09 trig=  2.14086e-09
tplh                =  2.05121e-10 targ=  2.26277e-08 trig=  2.24226e-08
i_vdd_avg           =  -1.89628e-06 from=  5.00000e-09 to=  1.10000e-07
power_avg_uw        =  3.42612e+00


Total analysis time (seconds) = 0.858254

Total elapsed time (seconds) = 0.951 

Total DRAM available = 16384.000 MB.
DRAM currently available =  155.875 MB.
Maximum ngspice program size =   12.797 MB.
Current ngspice program size =   12.109 MB.

