
Note: No compatibility mode selected!


Circuit: NOR2 seed characterization sample 4222029

Doing analysis at TEMP = -10.392700 and TNOM = 27.000000

Using SPARSE 1.3 as Direct Linear Solver

Initial Transient Solution
--------------------------

Node                                   Voltage
----                                   -------
vdd                                    1.95851
in                                           0
out                                    1.95851
pmid                                   1.95851
vin#branch                                   0
vdd#branch                        -4.00114e-12

 Reference value :  4.82797e-08
 Reference value :  1.10398e-07
No. of Data Rows : 60041

  Measurements for Transient Analysis

tphl                =  8.23753e-11 targ=  2.13372e-09 trig=  2.05134e-09
tplh                =  2.46317e-10 targ=  2.24003e-08 trig=  2.21540e-08
i_vdd_avg           =  -5.16115e-06 from=  5.00000e-09 to=  1.10000e-07
power_avg_uw        =  1.01082e+01


Total analysis time (seconds) = 0.465245

Total elapsed time (seconds) = 0.533 

Total DRAM available = 16384.000 MB.
DRAM currently available =  122.141 MB.
Maximum ngspice program size =   12.562 MB.
Current ngspice program size =   12.266 MB.

