
Note: No compatibility mode selected!


Circuit: INV seed characterization sample 4222002

Doing analysis at TEMP = 20.904800 and TNOM = 27.000000

Using SPARSE 1.3 as Direct Linear Solver

Initial Transient Solution
--------------------------

Node                                   Voltage
----                                   -------
vdd                                    1.80306
in                                           0
out                                    1.80306
vin#branch                                   0
vdd#branch                        -1.97033e-12

 Reference value :  7.41580e-08
No. of Data Rows : 60041

  Measurements for Transient Analysis

tphl                =  3.80221e-10 targ=  2.39047e-09 trig=  2.01025e-09
tplh                =  4.57870e-10 targ=  2.24886e-08 trig=  2.20308e-08
i_vdd_avg           =  -5.34743e-06 from=  5.00000e-09 to=  1.10000e-07
power_avg_uw        =  9.64173e+00


Total analysis time (seconds) = 0.286113

Total elapsed time (seconds) = 0.357 

Total DRAM available = 16384.000 MB.
DRAM currently available =  173.828 MB.
Maximum ngspice program size =   12.797 MB.
Current ngspice program size =   12.484 MB.

