
Note: No compatibility mode selected!


Circuit: INV seed characterization sample 4222044

Doing analysis at TEMP = 63.294400 and TNOM = 27.000000

Using SPARSE 1.3 as Direct Linear Solver

Initial Transient Solution
--------------------------

Node                                   Voltage
----                                   -------
vdd                                    1.91608
in                                           0
out                                    1.91608
vin#branch                                   0
vdd#branch                        -5.77834e-12

 Reference value :  6.16544e-08
No. of Data Rows : 60047

  Measurements for Transient Analysis

tphl                =  3.44335e-10 targ=  2.42703e-09 trig=  2.08269e-09
tplh                =  4.56804e-10 targ=  2.27049e-08 trig=  2.22481e-08
i_vdd_avg           =  -4.74660e-06 from=  5.00000e-09 to=  1.10002e-07
power_avg_uw        =  9.09486e+00


Total analysis time (seconds) = 0.341446

Total elapsed time (seconds) = 0.418 

Total DRAM available = 16384.000 MB.
DRAM currently available =  160.250 MB.
Maximum ngspice program size =   12.562 MB.
Current ngspice program size =   11.797 MB.

