
Note: No compatibility mode selected!


Circuit: NAND2 seed characterization sample 4222022

Doing analysis at TEMP = 17.148000 and TNOM = 27.000000

Using SPARSE 1.3 as Direct Linear Solver

Initial Transient Solution
--------------------------

Node                                   Voltage
----                                   -------
vdd                                    1.84698
in                                           0
out                                    1.84698
nmid                                 0.0314523
vin#branch                                   0
vdd#branch                        -1.98038e-12

 Reference value :  4.68642e-08
 Reference value :  1.08287e-07
No. of Data Rows : 60047

  Measurements for Transient Analysis

tphl                =  2.81025e-10 targ=  2.46761e-09 trig=  2.18659e-09
tplh                =  1.52591e-10 targ=  2.27124e-08 trig=  2.25598e-08
i_vdd_avg           =  -4.32017e-06 from=  5.00000e-09 to=  1.10001e-07
power_avg_uw        =  7.97927e+00


Total analysis time (seconds) = 0.476272

Total elapsed time (seconds) = 0.546 

Total DRAM available = 16384.000 MB.
DRAM currently available =  133.344 MB.
Maximum ngspice program size =   12.562 MB.
Current ngspice program size =   11.625 MB.

