
Note: No compatibility mode selected!


Circuit: XOR2 seed characterization sample 4222026

Doing analysis at TEMP = -0.385262 and TNOM = 27.000000

Using SPARSE 1.3 as Direct Linear Solver

Initial Transient Solution
--------------------------

Node                                   Voltage
----                                   -------
vdd                                    1.71318
in                                           0
b                                      1.71318
abar                                   1.71318
bbar                               1.54902e-09
out                                    1.71318
vb#branch                                    0
vin#branch                         1.78419e-12
vdd#branch                        -1.04467e-11

 Reference value :  2.63121e-08
 Reference value :  6.18995e-08
 Reference value :  1.02482e-07
No. of Data Rows : 60041

  Measurements for Transient Analysis

tphl                =  3.59656e-10 targ=  2.60793e-09 trig=  2.24827e-09
tplh                =  5.34261e-10 targ=  2.32791e-08 trig=  2.27448e-08
i_vdd_avg           =  -4.05266e-06 from=  5.00000e-09 to=  1.10000e-07
power_avg_uw        =  6.94293e+00


Total analysis time (seconds) = 0.766211

Total elapsed time (seconds) = 0.839 

Total DRAM available = 16384.000 MB.
DRAM currently available =  145.906 MB.
Maximum ngspice program size =   12.609 MB.
Current ngspice program size =   11.734 MB.

