
Note: No compatibility mode selected!


Circuit: NAND2 seed characterization sample 4222003

Doing analysis at TEMP = 71.777100 and TNOM = 27.000000

Using SPARSE 1.3 as Direct Linear Solver

Initial Transient Solution
--------------------------

Node                                   Voltage
----                                   -------
vdd                                    1.96512
in                                           0
out                                    1.96512
nmid                                 0.0524414
vin#branch                                   0
vdd#branch                        -2.85619e-12

 Reference value :  4.79345e-08
 Reference value :  1.09864e-07
No. of Data Rows : 60047

  Measurements for Transient Analysis

tphl                =  2.24669e-10 targ=  2.37841e-09 trig=  2.15375e-09
tplh                =  1.31523e-10 targ=  2.25928e-08 trig=  2.24612e-08
i_vdd_avg           =  -9.58735e-07 from=  5.00000e-09 to=  1.10002e-07
power_avg_uw        =  1.88403e+00


Total analysis time (seconds) = 0.46671

Total elapsed time (seconds) = 0.535 

Total DRAM available = 16384.000 MB.
DRAM currently available =  173.828 MB.
Maximum ngspice program size =   12.641 MB.
Current ngspice program size =   12.266 MB.

