
Note: No compatibility mode selected!


Circuit: NOR2 seed characterization sample 4222016

Doing analysis at TEMP = 70.881300 and TNOM = 27.000000

Using SPARSE 1.3 as Direct Linear Solver

Initial Transient Solution
--------------------------

Node                                   Voltage
----                                   -------
vdd                                    1.68778
in                                           0
out                                    1.68778
pmid                                   1.68778
vin#branch                                   0
vdd#branch                        -4.40137e-11

 Reference value :  4.65563e-08
 Reference value :  1.06908e-07
No. of Data Rows : 60047

  Measurements for Transient Analysis

tphl                =  1.53665e-10 targ=  2.33729e-09 trig=  2.18363e-09
tplh                =  4.22768e-10 targ=  2.29736e-08 trig=  2.25509e-08
i_vdd_avg           =  -5.07683e-06 from=  5.00000e-09 to=  1.10002e-07
power_avg_uw        =  8.56858e+00


Total analysis time (seconds) = 0.478984

Total elapsed time (seconds) = 0.548 

Total DRAM available = 16384.000 MB.
DRAM currently available =  176.234 MB.
Maximum ngspice program size =   12.562 MB.
Current ngspice program size =   12.188 MB.

