
Note: No compatibility mode selected!


Circuit: INV seed characterization sample 4222048

Doing analysis at TEMP = 32.096100 and TNOM = 27.000000

Using SPARSE 1.3 as Direct Linear Solver

Initial Transient Solution
--------------------------

Node                                   Voltage
----                                   -------
vdd                                    1.97082
in                                           0
out                                    1.97082
vin#branch                                   0
vdd#branch                        -3.33889e-12

 Reference value :  7.45138e-08
No. of Data Rows : 60047

  Measurements for Transient Analysis

tphl                =  1.28818e-10 targ=  2.34853e-09 trig=  2.21971e-09
tplh                =  1.46046e-10 targ=  2.28052e-08 trig=  2.26591e-08
i_vdd_avg           =  -2.16742e-06 from=  5.00000e-09 to=  1.10002e-07
power_avg_uw        =  4.27159e+00


Total analysis time (seconds) = 0.291119

Total elapsed time (seconds) = 0.359 

Total DRAM available = 16384.000 MB.
DRAM currently available =  154.172 MB.
Maximum ngspice program size =   12.562 MB.
Current ngspice program size =   11.906 MB.

