
Note: No compatibility mode selected!


Circuit: INV seed characterization sample 4222027

Doing analysis at TEMP = 39.367000 and TNOM = 27.000000

Using SPARSE 1.3 as Direct Linear Solver

Initial Transient Solution
--------------------------

Node                                   Voltage
----                                   -------
vdd                                    1.71101
in                                           0
out                                    1.71101
vin#branch                                   0
vdd#branch                        -3.78372e-12

 Reference value :  7.26201e-08
No. of Data Rows : 60044

  Measurements for Transient Analysis

tphl                =  5.39674e-11 targ=  2.10073e-09 trig=  2.04677e-09
tplh                =  6.46697e-11 targ=  2.22050e-08 trig=  2.21403e-08
i_vdd_avg           =  -9.11426e-07 from=  5.00000e-09 to=  1.10000e-07
power_avg_uw        =  1.55946e+00


Total analysis time (seconds) = 0.292596

Total elapsed time (seconds) = 0.365 

Total DRAM available = 16384.000 MB.
DRAM currently available =  118.812 MB.
Maximum ngspice program size =   12.562 MB.
Current ngspice program size =   11.625 MB.

