
Note: No compatibility mode selected!


Circuit: XOR2 seed characterization sample 4222032

Doing analysis at TEMP = 0.663379 and TNOM = 27.000000

Using SPARSE 1.3 as Direct Linear Solver

Initial Transient Solution
--------------------------

Node                                   Voltage
----                                   -------
vdd                                    1.94191
in                                           0
b                                      1.94191
abar                                   1.94191
bbar                               2.77014e-09
out                                    1.94191
vb#branch                                    0
vin#branch                         1.99374e-12
vdd#branch                        -1.17842e-11

 Reference value :  2.77524e-08
 Reference value :  6.36904e-08
 Reference value :  1.00687e-07
No. of Data Rows : 60044

  Measurements for Transient Analysis

tphl                =  3.20515e-10 targ=  2.41237e-09 trig=  2.09185e-09
tplh                =  4.16486e-10 targ=  2.26920e-08 trig=  2.22756e-08
i_vdd_avg           =  -3.64269e-06 from=  5.00000e-09 to=  1.10000e-07
power_avg_uw        =  7.07378e+00


Total analysis time (seconds) = 0.794123

Total elapsed time (seconds) = 0.863 

Total DRAM available = 16384.000 MB.
DRAM currently available =  122.141 MB.
Maximum ngspice program size =   12.578 MB.
Current ngspice program size =   12.375 MB.

