
Note: No compatibility mode selected!


Circuit: NAND2 seed characterization sample 4222037

Doing analysis at TEMP = 27.439400 and TNOM = 27.000000

Using SPARSE 1.3 as Direct Linear Solver

Initial Transient Solution
--------------------------

Node                                   Voltage
----                                   -------
vdd                                    1.94225
in                                           0
out                                    1.94225
nmid                                 0.0428587
vin#branch                                   0
vdd#branch                        -2.22402e-12

 Reference value :  3.86571e-08
 Reference value :  9.19840e-08
No. of Data Rows : 60047

  Measurements for Transient Analysis

tphl                =  2.42801e-10 targ=  2.47132e-09 trig=  2.22852e-09
tplh                =  1.69435e-10 targ=  2.28550e-08 trig=  2.26856e-08
i_vdd_avg           =  -4.17946e-06 from=  5.00000e-09 to=  1.10001e-07
power_avg_uw        =  8.11755e+00


Total analysis time (seconds) = 0.529573

Total elapsed time (seconds) = 0.609 

Total DRAM available = 16384.000 MB.
DRAM currently available =  162.703 MB.
Maximum ngspice program size =   12.562 MB.
Current ngspice program size =   11.766 MB.

