
Note: No compatibility mode selected!


Circuit: NOR2 seed characterization sample 4214015

Doing analysis at TEMP = -0.531344 and TNOM = 27.000000

Using SPARSE 1.3 as Direct Linear Solver

Initial Transient Solution
--------------------------

Node                                   Voltage
----                                   -------
vdd                                    1.69967
in                                           0
out                                    1.69967
pmid                                   1.69967
vin#branch                                   0
vdd#branch                         -3.4228e-12

 Reference value :  4.47987e-08
 Reference value :  1.05184e-07
No. of Data Rows : 60044

  Measurements for Transient Analysis

tphl                =  8.19844e-11 targ=  2.14582e-09 trig=  2.06384e-09
tplh                =  3.90476e-10 targ=  2.25820e-08 trig=  2.21915e-08
i_vdd_avg           =  -1.29153e-06 from=  5.00000e-09 to=  1.10000e-07
power_avg_uw        =  2.19518e+00


Total analysis time (seconds) = 0.478123

Total elapsed time (seconds) = 0.556 

Total DRAM available = 16384.000 MB.
DRAM currently available =  135.844 MB.
Maximum ngspice program size =   13.219 MB.
Current ngspice program size =   12.391 MB.

