
Note: No compatibility mode selected!


Circuit: NOR2 seed characterization sample 4214027

Doing analysis at TEMP = 83.666200 and TNOM = 27.000000

Using SPARSE 1.3 as Direct Linear Solver

Initial Transient Solution
--------------------------

Node                                   Voltage
----                                   -------
vdd                                    1.91329
in                                           0
out                                    1.91329
pmid                                   1.91329
vin#branch                                   0
vdd#branch                        -1.33916e-11

 Reference value :  4.43282e-08
 Reference value :  1.01338e-07
No. of Data Rows : 60047

  Measurements for Transient Analysis

tphl                =  1.49148e-10 targ=  2.27074e-09 trig=  2.12159e-09
tplh                =  5.16622e-10 targ=  2.28814e-08 trig=  2.23648e-08
i_vdd_avg           =  -6.56428e-06 from=  5.00000e-09 to=  1.10001e-07
power_avg_uw        =  1.25594e+01


Total analysis time (seconds) = 0.50059

Total elapsed time (seconds) = 0.575 

Total DRAM available = 16384.000 MB.
DRAM currently available =  148.484 MB.
Maximum ngspice program size =   12.562 MB.
Current ngspice program size =   11.781 MB.

