
Note: No compatibility mode selected!


Circuit: XOR2 seed characterization sample 4214008

Doing analysis at TEMP = 61.572800 and TNOM = 27.000000

Using SPARSE 1.3 as Direct Linear Solver

Initial Transient Solution
--------------------------

Node                                   Voltage
----                                   -------
vdd                                    1.96003
in                                           0
b                                      1.96003
abar                                   1.96003
bbar                               2.16348e-09
out                                    1.96003
vb#branch                                    0
vin#branch                         2.79727e-12
vdd#branch                        -1.32853e-11

 Reference value :  2.56992e-08
 Reference value :  6.04617e-08
 Reference value :  9.75157e-08
No. of Data Rows : 60047

  Measurements for Transient Analysis

tphl                =  2.91295e-10 targ=  2.30590e-09 trig=  2.01460e-09
tplh                =  3.89459e-10 targ=  2.24333e-08 trig=  2.20438e-08
i_vdd_avg           =  -4.61641e-06 from=  5.00000e-09 to=  1.10001e-07
power_avg_uw        =  9.04831e+00


Total analysis time (seconds) = 0.804798

Total elapsed time (seconds) = 0.879 

Total DRAM available = 16384.000 MB.
DRAM currently available =  170.984 MB.
Maximum ngspice program size =   12.578 MB.
Current ngspice program size =   12.141 MB.

