
Note: No compatibility mode selected!


Circuit: XOR2 seed characterization sample 4214032

Doing analysis at TEMP = 89.354500 and TNOM = 27.000000

Using SPARSE 1.3 as Direct Linear Solver

Initial Transient Solution
--------------------------

Node                                   Voltage
----                                   -------
vdd                                    1.97366
in                                           0
b                                      1.97366
abar                                   1.97366
bbar                                1.5311e-09
out                                    1.97366
vb#branch                                    0
vin#branch                         1.18943e-11
vdd#branch                        -2.95934e-11

 Reference value :  2.25507e-08
 Reference value :  5.32388e-08
 Reference value :  8.74228e-08
No. of Data Rows : 60044

  Measurements for Transient Analysis

tphl                =  1.80543e-10 targ=  2.27146e-09 trig=  2.09091e-09
tplh                =  2.21580e-10 targ=  2.24943e-08 trig=  2.22727e-08
i_vdd_avg           =  -3.75351e-06 from=  5.00000e-09 to=  1.10001e-07
power_avg_uw        =  7.40816e+00


Total analysis time (seconds) = 0.874178

Total elapsed time (seconds) = 0.954 

Total DRAM available = 16384.000 MB.
DRAM currently available =  119.406 MB.
Maximum ngspice program size =   13.156 MB.
Current ngspice program size =   12.406 MB.

