
Note: No compatibility mode selected!


Circuit: NAND2 seed characterization sample 4214042

Doing analysis at TEMP = 44.249200 and TNOM = 27.000000

Using SPARSE 1.3 as Direct Linear Solver

Initial Transient Solution
--------------------------

Node                                   Voltage
----                                   -------
vdd                                    1.83498
in                                           0
out                                    1.83498
nmid                                 0.0112159
vin#branch                                   0
vdd#branch                        -1.87715e-12

 Reference value :  4.75250e-08
 Reference value :  1.09347e-07
No. of Data Rows : 60044

  Measurements for Transient Analysis

tphl                =  7.69352e-10 targ=  3.00836e-09 trig=  2.23901e-09
tplh                =  3.83908e-10 targ=  2.31009e-08 trig=  2.27170e-08
i_vdd_avg           =  -2.59426e-06 from=  5.00000e-09 to=  1.10001e-07
power_avg_uw        =  4.76041e+00


Total analysis time (seconds) = 0.467628

Total elapsed time (seconds) = 0.537 

Total DRAM available = 16384.000 MB.
DRAM currently available =  176.078 MB.
Maximum ngspice program size =   12.562 MB.
Current ngspice program size =   11.906 MB.

