
Note: No compatibility mode selected!


Circuit: NOR2 seed characterization sample 4214003

Doing analysis at TEMP = -8.585850 and TNOM = 27.000000

Using SPARSE 1.3 as Direct Linear Solver

Initial Transient Solution
--------------------------

Node                                   Voltage
----                                   -------
vdd                                    1.74845
in                                           0
out                                    1.74845
pmid                                   1.74845
vin#branch                                   0
vdd#branch                        -3.51744e-12

 Reference value :  4.18483e-08
 Reference value :  1.00305e-07
No. of Data Rows : 60044

  Measurements for Transient Analysis

tphl                =  4.83747e-10 targ=  2.72158e-09 trig=  2.23784e-09
tplh                =  3.31842e-09 targ=  2.60319e-08 trig=  2.27135e-08
i_vdd_avg           =  -3.88000e-06 from=  5.00000e-09 to=  1.10000e-07
power_avg_uw        =  6.78398e+00


Total analysis time (seconds) = 0.498507

Total elapsed time (seconds) = 0.575 

Total DRAM available = 16384.000 MB.
DRAM currently available =  190.719 MB.
Maximum ngspice program size =   12.562 MB.
Current ngspice program size =   11.797 MB.

