
Note: No compatibility mode selected!


Circuit: INV seed characterization sample 4214029

Doing analysis at TEMP = 66.839300 and TNOM = 27.000000

Using SPARSE 1.3 as Direct Linear Solver

Initial Transient Solution
--------------------------

Node                                   Voltage
----                                   -------
vdd                                    1.87863
in                                           0
out                                    1.87863
vin#branch                                   0
vdd#branch                        -2.08435e-12

 Reference value :  5.24904e-08
No. of Data Rows : 60047

  Measurements for Transient Analysis

tphl                =  1.00791e-09 targ=  3.16561e-09 trig=  2.15770e-09
tplh                =  1.36682e-09 targ=  2.38399e-08 trig=  2.24731e-08
i_vdd_avg           =  -4.10960e-06 from=  5.00000e-09 to=  1.10002e-07
power_avg_uw        =  7.72043e+00


Total analysis time (seconds) = 0.341481

Total elapsed time (seconds) = 0.445 

Total DRAM available = 16384.000 MB.
DRAM currently available =  119.406 MB.
Maximum ngspice program size =   12.734 MB.
Current ngspice program size =   12.734 MB.

