
Note: No compatibility mode selected!


Circuit: XOR2 seed characterization sample 4214036

Doing analysis at TEMP = 70.194600 and TNOM = 27.000000

Using SPARSE 1.3 as Direct Linear Solver

Initial Transient Solution
--------------------------

Node                                   Voltage
----                                   -------
vdd                                    1.62964
in                                           0
b                                      1.62964
abar                                   1.62964
bbar                               2.03779e-09
out                                    1.62964
vb#branch                                    0
vin#branch                         3.05773e-12
vdd#branch                        -1.23557e-11

 Reference value :  2.22897e-08
 Reference value :  5.70304e-08
 Reference value :  9.36664e-08
No. of Data Rows : 60047

  Measurements for Transient Analysis

tphl                =  4.87776e-10 targ=  2.51045e-09 trig=  2.02268e-09
tplh                =  6.36369e-10 targ=  2.27044e-08 trig=  2.20680e-08
i_vdd_avg           =  -5.44017e-06 from=  5.00000e-09 to=  1.10002e-07
power_avg_uw        =  8.86553e+00


Total analysis time (seconds) = 0.80639

Total elapsed time (seconds) = 0.904 

Total DRAM available = 16384.000 MB.
DRAM currently available =  150.422 MB.
Maximum ngspice program size =   12.906 MB.
Current ngspice program size =   12.906 MB.

