
Note: No compatibility mode selected!


Circuit: NAND2 seed characterization sample 4214034

Doing analysis at TEMP = 3.175310 and TNOM = 27.000000

Using SPARSE 1.3 as Direct Linear Solver

Initial Transient Solution
--------------------------

Node                                   Voltage
----                                   -------
vdd                                    1.92764
in                                           0
out                                    1.92764
nmid                               0.000653157
vin#branch                                   0
vdd#branch                        -1.93949e-12

 Reference value :  4.55354e-08
 Reference value :  1.06040e-07
No. of Data Rows : 60044

  Measurements for Transient Analysis

tphl                =  7.93966e-10 targ=  2.96919e-09 trig=  2.17522e-09
tplh                =  3.63944e-10 targ=  2.28896e-08 trig=  2.25257e-08
i_vdd_avg           =  -5.44059e-06 from=  5.00000e-09 to=  1.10002e-07
power_avg_uw        =  1.04875e+01


Total analysis time (seconds) = 0.475663

Total elapsed time (seconds) = 0.551 

Total DRAM available = 16384.000 MB.
DRAM currently available =  150.422 MB.
Maximum ngspice program size =   12.562 MB.
Current ngspice program size =   11.594 MB.

