
Note: No compatibility mode selected!


Circuit: NOR2 seed characterization sample 4214011

Doing analysis at TEMP = 65.186900 and TNOM = 27.000000

Using SPARSE 1.3 as Direct Linear Solver

Initial Transient Solution
--------------------------

Node                                   Voltage
----                                   -------
vdd                                    1.62887
in                                           0
out                                    1.62887
pmid                                   1.62887
vin#branch                                   0
vdd#branch                        -3.65617e-12

 Reference value :  4.66319e-08
 Reference value :  1.07843e-07
No. of Data Rows : 60041

  Measurements for Transient Analysis

tphl                =  4.29625e-10 targ=  2.65210e-09 trig=  2.22247e-09
tplh                =  1.68138e-09 targ=  2.43488e-08 trig=  2.26674e-08
i_vdd_avg           =  -3.17242e-06 from=  5.00000e-09 to=  1.10001e-07
power_avg_uw        =  5.16747e+00


Total analysis time (seconds) = 0.473549

Total elapsed time (seconds) = 0.544 

Total DRAM available = 16384.000 MB.
DRAM currently available =  161.734 MB.
Maximum ngspice program size =   12.562 MB.
Current ngspice program size =   11.875 MB.

