
Note: No compatibility mode selected!


Circuit: XOR2 seed characterization sample 4214020

Doing analysis at TEMP = 69.623800 and TNOM = 27.000000

Using SPARSE 1.3 as Direct Linear Solver

Initial Transient Solution
--------------------------

Node                                   Voltage
----                                   -------
vdd                                     1.6453
in                                           0
b                                       1.6453
abar                                    1.6453
bbar                               1.44852e-09
out                                     1.6453
vb#branch                                    0
vin#branch                         3.66347e-12
vdd#branch                        -1.35106e-11

 Reference value :  2.66086e-08
 Reference value :  6.15468e-08
 Reference value :  9.84268e-08
No. of Data Rows : 60044

  Measurements for Transient Analysis

tphl                =  3.15829e-10 targ=  2.44173e-09 trig=  2.12590e-09
tplh                =  3.99120e-10 targ=  2.27768e-08 trig=  2.23777e-08
i_vdd_avg           =  -3.97734e-06 from=  5.00000e-09 to=  1.10001e-07
power_avg_uw        =  6.54391e+00


Total analysis time (seconds) = 0.805214

Total elapsed time (seconds) = 0.876 

Total DRAM available = 16384.000 MB.
DRAM currently available =  134.781 MB.
Maximum ngspice program size =   13.062 MB.
Current ngspice program size =   11.203 MB.

