
Note: No compatibility mode selected!


Circuit: INV seed characterization sample 4214001

Doing analysis at TEMP = 11.170400 and TNOM = 27.000000

Using SPARSE 1.3 as Direct Linear Solver

Initial Transient Solution
--------------------------

Node                                   Voltage
----                                   -------
vdd                                    1.62541
in                                           0
out                                    1.62541
vin#branch                                   0
vdd#branch                        -1.65013e-12

 Reference value :  6.52054e-08
No. of Data Rows : 60047

  Measurements for Transient Analysis

tphl                =  1.36719e-10 targ=  2.16031e-09 trig=  2.02359e-09
tplh                =  1.53582e-10 targ=  2.22244e-08 trig=  2.20708e-08
i_vdd_avg           =  -3.48903e-06 from=  5.00000e-09 to=  1.10001e-07
power_avg_uw        =  5.67111e+00


Total analysis time (seconds) = 0.308896

Total elapsed time (seconds) = 0.387 

Total DRAM available = 16384.000 MB.
DRAM currently available =  190.719 MB.
Maximum ngspice program size =   12.562 MB.
Current ngspice program size =   11.656 MB.

