
Note: No compatibility mode selected!


Circuit: INV seed characterization sample 4214005

Doing analysis at TEMP = 97.375000 and TNOM = 27.000000

Using SPARSE 1.3 as Direct Linear Solver

Initial Transient Solution
--------------------------

Node                                   Voltage
----                                   -------
vdd                                    1.87019
in                                           0
out                                    1.87019
vin#branch                                   0
vdd#branch                        -6.23217e-12

 Reference value :  7.02253e-08
No. of Data Rows : 60047

  Measurements for Transient Analysis

tphl                =  1.38277e-10 targ=  2.18386e-09 trig=  2.04558e-09
tplh                =  2.28100e-10 targ=  2.23648e-08 trig=  2.21367e-08
i_vdd_avg           =  -1.78097e-06 from=  5.00000e-09 to=  1.10001e-07
power_avg_uw        =  3.33075e+00


Total analysis time (seconds) = 0.302358

Total elapsed time (seconds) = 0.376 

Total DRAM available = 16384.000 MB.
DRAM currently available =  170.984 MB.
Maximum ngspice program size =   12.562 MB.
Current ngspice program size =   12.250 MB.

