
Note: No compatibility mode selected!


Circuit: XOR2 seed characterization sample 4214028

Doing analysis at TEMP = -15.713300 and TNOM = 27.000000

Using SPARSE 1.3 as Direct Linear Solver

Initial Transient Solution
--------------------------

Node                                   Voltage
----                                   -------
vdd                                    1.86074
in                                           0
b                                      1.86074
abar                                   1.86074
bbar                               1.12934e-09
out                                    1.86074
vb#branch                                    0
vin#branch                         1.87171e-12
vdd#branch                        -1.12262e-11

 Reference value :  2.53005e-08
 Reference value :  5.83057e-08
 Reference value :  9.20757e-08
No. of Data Rows : 60041

  Measurements for Transient Analysis

tphl                =  2.12368e-10 targ=  2.26574e-09 trig=  2.05337e-09
tplh                =  2.90973e-10 targ=  2.24511e-08 trig=  2.21601e-08
i_vdd_avg           =  -4.23253e-06 from=  5.00000e-09 to=  1.10000e-07
power_avg_uw        =  7.87564e+00


Total analysis time (seconds) = 0.857188

Total elapsed time (seconds) = 0.933 

Total DRAM available = 16384.000 MB.
DRAM currently available =  148.484 MB.
Maximum ngspice program size =   12.578 MB.
Current ngspice program size =   12.031 MB.

