
Note: No compatibility mode selected!


Circuit: NOR2 seed characterization sample 4214047

Doing analysis at TEMP = 43.453800 and TNOM = 27.000000

Using SPARSE 1.3 as Direct Linear Solver

Initial Transient Solution
--------------------------

Node                                   Voltage
----                                   -------
vdd                                    1.77369
in                                           0
out                                    1.77369
pmid                                   1.77369
vin#branch                                   0
vdd#branch                        -4.02724e-12

 Reference value :  4.59427e-08
 Reference value :  1.06473e-07
No. of Data Rows : 60044

  Measurements for Transient Analysis

tphl                =  5.09768e-11 targ=  2.06402e-09 trig=  2.01304e-09
tplh                =  3.14112e-10 targ=  2.23532e-08 trig=  2.20391e-08
i_vdd_avg           =  -2.48893e-06 from=  5.00000e-09 to=  1.10001e-07
power_avg_uw        =  4.41460e+00


Total analysis time (seconds) = 0.478984

Total elapsed time (seconds) = 0.550 

Total DRAM available = 16384.000 MB.
DRAM currently available =  186.312 MB.
Maximum ngspice program size =   12.562 MB.
Current ngspice program size =   12.281 MB.

