
Note: No compatibility mode selected!


Circuit: NAND2 seed characterization sample 4214010

Doing analysis at TEMP = 10.950300 and TNOM = 27.000000

Using SPARSE 1.3 as Direct Linear Solver

Initial Transient Solution
--------------------------

Node                                   Voltage
----                                   -------
vdd                                    1.73573
in                                           0
out                                    1.73573
nmid                                0.00101684
vin#branch                                   0
vdd#branch                        -1.74859e-12

 Reference value :  4.53924e-08
 Reference value :  1.05196e-07
No. of Data Rows : 60047

  Measurements for Transient Analysis

tphl                =  1.15506e-09 targ=  3.36278e-09 trig=  2.20772e-09
tplh                =  4.19843e-10 targ=  2.30430e-08 trig=  2.26231e-08
i_vdd_avg           =  -5.26070e-06 from=  5.00000e-09 to=  1.10002e-07
power_avg_uw        =  9.13115e+00


Total analysis time (seconds) = 0.485039

Total elapsed time (seconds) = 0.555 

Total DRAM available = 16384.000 MB.
DRAM currently available =  161.734 MB.
Maximum ngspice program size =   12.562 MB.
Current ngspice program size =   11.703 MB.

