
Note: No compatibility mode selected!


Circuit: NOR2 seed characterization sample 4214023

Doing analysis at TEMP = 0.883139 and TNOM = 27.000000

Using SPARSE 1.3 as Direct Linear Solver

Initial Transient Solution
--------------------------

Node                                   Voltage
----                                   -------
vdd                                    1.63592
in                                           0
out                                    1.63592
pmid                                   1.63592
vin#branch                                   0
vdd#branch                        -3.30265e-12

 Reference value :  4.37741e-08
 Reference value :  1.02332e-07
No. of Data Rows : 60047

  Measurements for Transient Analysis

tphl                =  1.27148e-10 targ=  2.25568e-09 trig=  2.12853e-09
tplh                =  4.41931e-10 targ=  2.28275e-08 trig=  2.23856e-08
i_vdd_avg           =  -3.36563e-06 from=  5.00000e-09 to=  1.10001e-07
power_avg_uw        =  5.50590e+00


Total analysis time (seconds) = 0.500601

Total elapsed time (seconds) = 0.572 

Total DRAM available = 16384.000 MB.
DRAM currently available =  127.281 MB.
Maximum ngspice program size =   12.562 MB.
Current ngspice program size =   11.875 MB.

