
Note: No compatibility mode selected!


Circuit: NAND2 seed characterization sample 4214046

Doing analysis at TEMP = 22.427400 and TNOM = 27.000000

Using SPARSE 1.3 as Direct Linear Solver

Initial Transient Solution
--------------------------

Node                                   Voltage
----                                   -------
vdd                                    1.85391
in                                           0
out                                    1.85391
nmid                                0.00973455
vin#branch                                   0
vdd#branch                        -1.89188e-12

 Reference value :  4.68466e-08
 Reference value :  1.08416e-07
No. of Data Rows : 60044

  Measurements for Transient Analysis

tphl                =  3.37565e-10 targ=  2.46336e-09 trig=  2.12580e-09
tplh                =  1.65925e-10 targ=  2.25433e-08 trig=  2.23774e-08
i_vdd_avg           =  -4.88083e-06 from=  5.00000e-09 to=  1.10000e-07
power_avg_uw        =  9.04861e+00


Total analysis time (seconds) = 0.471398

Total elapsed time (seconds) = 0.541 

Total DRAM available = 16384.000 MB.
DRAM currently available =  186.312 MB.
Maximum ngspice program size =   12.562 MB.
Current ngspice program size =   11.875 MB.

