
Note: No compatibility mode selected!


Circuit: NAND2 seed characterization sample 4214006

Doing analysis at TEMP = 83.427500 and TNOM = 27.000000

Using SPARSE 1.3 as Direct Linear Solver

Initial Transient Solution
--------------------------

Node                                   Voltage
----                                   -------
vdd                                    1.97079
in                                           0
out                                    1.97079
nmid                                 0.0473931
vin#branch                                   0
vdd#branch                        -2.58118e-12

 Reference value :  4.45341e-08
 Reference value :  1.03391e-07
No. of Data Rows : 60047

  Measurements for Transient Analysis

tphl                =  2.71137e-10 targ=  2.43667e-09 trig=  2.16553e-09
tplh                =  1.35772e-10 targ=  2.26324e-08 trig=  2.24966e-08
i_vdd_avg           =  -2.29937e-06 from=  5.00000e-09 to=  1.10001e-07
power_avg_uw        =  4.53158e+00


Total analysis time (seconds) = 0.490253

Total elapsed time (seconds) = 0.563 

Total DRAM available = 16384.000 MB.
DRAM currently available =  170.984 MB.
Maximum ngspice program size =   12.859 MB.
Current ngspice program size =   12.859 MB.

