
Note: No compatibility mode selected!


Circuit: NAND2 seed characterization sample 4214002

Doing analysis at TEMP = 6.106970 and TNOM = 27.000000

Using SPARSE 1.3 as Direct Linear Solver

Initial Transient Solution
--------------------------

Node                                   Voltage
----                                   -------
vdd                                    1.62352
in                                           0
out                                    1.62352
nmid                                0.00240371
vin#branch                                   0
vdd#branch                        -1.64034e-12

 Reference value :  4.27205e-08
 Reference value :  1.02350e-07
No. of Data Rows : 60047

  Measurements for Transient Analysis

tphl                =  4.61205e-10 targ=  2.51493e-09 trig=  2.05373e-09
tplh                =  1.98011e-10 targ=  2.23592e-08 trig=  2.21612e-08
i_vdd_avg           =  -5.92245e-06 from=  5.00000e-09 to=  1.10002e-07
power_avg_uw        =  9.61522e+00


Total analysis time (seconds) = 0.488373

Total elapsed time (seconds) = 0.565 

Total DRAM available = 16384.000 MB.
DRAM currently available =  190.719 MB.
Maximum ngspice program size =   12.562 MB.
Current ngspice program size =   11.656 MB.

