
Note: No compatibility mode selected!


Circuit: NOR2 seed characterization sample 4214043

Doing analysis at TEMP = 94.519200 and TNOM = 27.000000

Using SPARSE 1.3 as Direct Linear Solver

Initial Transient Solution
--------------------------

Node                                   Voltage
----                                   -------
vdd                                    1.93533
in                                           0
out                                    1.93533
pmid                                   1.93533
vin#branch                                   0
vdd#branch                        -6.13872e-12

 Reference value :  4.68679e-08
 Reference value :  1.08427e-07
No. of Data Rows : 60041

  Measurements for Transient Analysis

tphl                =  3.78130e-10 targ=  2.44557e-09 trig=  2.06744e-09
tplh                =  1.77644e-09 targ=  2.39788e-08 trig=  2.22023e-08
i_vdd_avg           =  -2.98067e-06 from=  5.00000e-09 to=  1.10001e-07
power_avg_uw        =  5.76858e+00


Total analysis time (seconds) = 0.470716

Total elapsed time (seconds) = 0.541 

Total DRAM available = 16384.000 MB.
DRAM currently available =  176.078 MB.
Maximum ngspice program size =   12.562 MB.
Current ngspice program size =   11.688 MB.

