
Note: Compatibility modes selected: hs a


Circuit: SKY130 library cell xor2_1 A_to_X__B=0

option SCALE: Scale is set to 1e-06 for instance and model parameters
Doing analysis at TEMP = 45.570831 and TNOM = 27.000000

Using KLU as Direct Linear Solver
 Reference value :  2.10214e-08
 Reference value :  8.75508e-08
 Reference value :  1.53584e-07
 Reference value :  2.20476e-07
 Reference value :  2.88034e-07
No. of Data Rows : 68034

  Measurements for Transient Analysis

tplh                =  2.03334e-09 targ=  2.87250e-08 trig=  2.66917e-08
tphl                =  1.18466e-09 targ=  1.03260e-07 trig=  1.02075e-07
i_vdd_avg           =  -1.90058e-06 from=  1.00000e-08 to=  3.30004e-07
power_avg_uw        =  3.45602e+00


Total analysis time (seconds) = 1.29842

Total elapsed time (seconds) = 1.456 

Total DRAM available = 16384.000 MB.
DRAM currently available =  155.500 MB.
Maximum ngspice program size =   26.516 MB.
Current ngspice program size =   26.516 MB.

