
Note: Compatibility modes selected: hs a


Circuit: SKY130 library cell oai21_4 A1_to_Y__A2=0,B1=1

option SCALE: Scale is set to 1e-06 for instance and model parameters
Doing analysis at TEMP = 49.448785 and TNOM = 27.000000

Using KLU as Direct Linear Solver
 Reference value :  9.47140e-09
 Reference value :  4.03330e-08
 Reference value :  6.91330e-08
 Reference value :  1.01198e-07
 Reference value :  1.30728e-07
 Reference value :  1.60948e-07
 Reference value :  1.90158e-07
 Reference value :  2.20003e-07
 Reference value :  2.49588e-07
 Reference value :  2.82038e-07
 Reference value :  3.12528e-07
No. of Data Rows : 68032

  Measurements for Transient Analysis

tphl                =  -2.32587e-10 targ=  2.77251e-08 trig=  2.79577e-08
tplh                =  8.39119e-10 targ=  1.06712e-07 trig=  1.05873e-07
i_vdd_avg           =  -1.01659e-06 from=  1.00000e-08 to=  3.30003e-07
power_avg_uw        =  2.01075e+00


Total analysis time (seconds) = 2.84118

Total elapsed time (seconds) = 3.015 

Total DRAM available = 16384.000 MB.
DRAM currently available =  128.859 MB.
Maximum ngspice program size =   26.734 MB.
Current ngspice program size =   26.734 MB.

