
Note: Compatibility modes selected: hs a


Circuit: SKY130 library cell mux2_4 A0_to_X__A1=0,S=0

option SCALE: Scale is set to 1e-06 for instance and model parameters
Doing analysis at TEMP = -25.128208 and TNOM = 27.000000

Using KLU as Direct Linear Solver
 Reference value :  1.29414e-08
 Reference value :  5.34514e-08
 Reference value :  9.08564e-08
 Reference value :  1.26800e-07
 Reference value :  1.68545e-07
 Reference value :  2.05971e-07
 Reference value :  2.45456e-07
 Reference value :  2.84505e-07
 Reference value :  3.20225e-07
No. of Data Rows : 68032

  Measurements for Transient Analysis

tplh                =  5.41504e-10 targ=  2.77835e-08 trig=  2.72420e-08
tphl                =  1.57039e-09 targ=  1.05296e-07 trig=  1.03726e-07
i_vdd_avg           =  -1.35522e-06 from=  1.00000e-08 to=  3.30000e-07
power_avg_uw        =  2.42251e+00


Total analysis time (seconds) = 2.2451

Total elapsed time (seconds) = 2.411 

Total DRAM available = 16384.000 MB.
DRAM currently available =  131.156 MB.
Maximum ngspice program size =   25.953 MB.
Current ngspice program size =   25.953 MB.

