
Note: Compatibility modes selected: hs a


Circuit: SKY130 library cell oai21_1 A1_to_Y__A2=0,B1=1

option SCALE: Scale is set to 1e-06 for instance and model parameters
Doing analysis at TEMP = -34.365568 and TNOM = 27.000000

Using KLU as Direct Linear Solver
 Reference value :  2.51125e-08
 Reference value :  1.25817e-07
 Reference value :  2.25432e-07
 Reference value :  3.32052e-07
No. of Data Rows : 68032

  Measurements for Transient Analysis

tphl                =  1.89194e-09 targ=  3.17118e-08 trig=  2.98199e-08
tplh                =  5.00470e-09 targ=  1.16464e-07 trig=  1.11460e-07
i_vdd_avg           =  -1.47070e-06 from=  1.00000e-08 to=  3.30002e-07
power_avg_uw        =  2.65698e+00


Total analysis time (seconds) = 0.906847

Total elapsed time (seconds) = 1.069 

Total DRAM available = 16384.000 MB.
DRAM currently available =  122.922 MB.
Maximum ngspice program size =   27.969 MB.
Current ngspice program size =   27.969 MB.

