
Note: Compatibility modes selected: hs a


Circuit: SKY130 library cell nor2_1 A_to_Y__B=0

option SCALE: Scale is set to 1e-06 for instance and model parameters
Doing analysis at TEMP = 32.531856 and TNOM = 27.000000

Using KLU as Direct Linear Solver
 Reference value :  5.49606e-08
 Reference value :  1.94936e-07
 Reference value :  3.34679e-07
No. of Data Rows : 68034

  Measurements for Transient Analysis

tphl                =  1.44171e-09 targ=  2.82182e-08 trig=  2.67765e-08
tplh                =  3.53320e-09 targ=  1.05863e-07 trig=  1.02330e-07
i_vdd_avg           =  -1.49769e-06 from=  1.00000e-08 to=  3.30004e-07
power_avg_uw        =  2.55871e+00


Total analysis time (seconds) = 0.609339

Total elapsed time (seconds) = 0.761 

Total DRAM available = 16384.000 MB.
DRAM currently available =  104.219 MB.
Maximum ngspice program size =   25.891 MB.
Current ngspice program size =   25.891 MB.

