
Note: Compatibility modes selected: hs a


Circuit: SKY130 library cell oai21_4 A1_to_Y__A2=0,B1=1

option SCALE: Scale is set to 1e-06 for instance and model parameters
Doing analysis at TEMP = 102.786490 and TNOM = 27.000000

Using KLU as Direct Linear Solver
 Reference value :  8.61640e-09
 Reference value :  3.73916e-08
 Reference value :  6.64566e-08
 Reference value :  9.58766e-08
 Reference value :  1.24171e-07
 Reference value :  1.49951e-07
 Reference value :  1.79716e-07
 Reference value :  2.08437e-07
 Reference value :  2.38147e-07
 Reference value :  2.66487e-07
 Reference value :  2.93646e-07
 Reference value :  3.21691e-07
No. of Data Rows : 68032

  Measurements for Transient Analysis

tphl                =  6.60522e-10 targ=  2.91276e-08 trig=  2.84670e-08
tplh                =  1.67113e-09 targ=  1.09072e-07 trig=  1.07401e-07
i_vdd_avg           =  -1.33959e-06 from=  1.00000e-08 to=  3.30001e-07
power_avg_uw        =  2.25133e+00


Total analysis time (seconds) = 3.04674

Total elapsed time (seconds) = 3.212 

Total DRAM available = 16384.000 MB.
DRAM currently available =  122.000 MB.
Maximum ngspice program size =   26.016 MB.
Current ngspice program size =   26.016 MB.

