
Note: Compatibility modes selected: hs a


Circuit: SKY130 library cell mux2_4 A0_to_X__A1=0,S=0

option SCALE: Scale is set to 1e-06 for instance and model parameters
Doing analysis at TEMP = -1.404196 and TNOM = 27.000000

Using KLU as Direct Linear Solver
 Reference value :  1.42714e-08
 Reference value :  5.82755e-08
 Reference value :  1.05550e-07
 Reference value :  1.45508e-07
 Reference value :  1.80988e-07
 Reference value :  2.25500e-07
 Reference value :  2.68285e-07
 Reference value :  3.11063e-07
No. of Data Rows : 68034

  Measurements for Transient Analysis

tplh                =  2.43181e-10 targ=  2.95772e-08 trig=  2.93340e-08
tphl                =  1.76978e-09 targ=  1.11772e-07 trig=  1.10002e-07
i_vdd_avg           =  -2.25859e-06 from=  1.00000e-08 to=  3.30003e-07
power_avg_uw        =  4.38605e+00


Total analysis time (seconds) = 2.0726

Total elapsed time (seconds) = 2.243 

Total DRAM available = 16384.000 MB.
DRAM currently available =  182.781 MB.
Maximum ngspice program size =   26.969 MB.
Current ngspice program size =   26.969 MB.

