
Note: Compatibility modes selected: hs a


Circuit: SKY130 library cell aoi21_1 A1_to_Y__A2=1,B1=0

option SCALE: Scale is set to 1e-06 for instance and model parameters
Doing analysis at TEMP = 93.735269 and TNOM = 27.000000

Using KLU as Direct Linear Solver
 Reference value :  3.66193e-08
 Reference value :  1.34881e-07
 Reference value :  2.34834e-07
 Reference value :  3.37541e-07
No. of Data Rows : 68030

  Measurements for Transient Analysis

tphl                =  2.22309e-09 targ=  2.99790e-08 trig=  2.77559e-08
tplh                =  3.81531e-09 targ=  1.09083e-07 trig=  1.05268e-07
i_vdd_avg           =  -1.42646e-06 from=  1.00000e-08 to=  3.30001e-07
power_avg_uw        =  2.33130e+00


Total analysis time (seconds) = 0.867088

Total elapsed time (seconds) = 1.018 

Total DRAM available = 16384.000 MB.
DRAM currently available =  137.547 MB.
Maximum ngspice program size =   27.344 MB.
Current ngspice program size =   27.344 MB.

