
Note: Compatibility modes selected: hs a


Circuit: SKY130 library cell mux2_1 A0_to_X__A1=0,S=0

option SCALE: Scale is set to 1e-06 for instance and model parameters
Doing analysis at TEMP = 53.657367 and TNOM = 27.000000

Using KLU as Direct Linear Solver
 Reference value :  1.54964e-08
 Reference value :  6.84000e-08
 Reference value :  1.23937e-07
 Reference value :  1.78737e-07
 Reference value :  2.31050e-07
 Reference value :  2.84197e-07
 Reference value :  3.36237e-07
No. of Data Rows : 68030

  Measurements for Transient Analysis

tplh                =  5.06579e-10 targ=  2.95778e-08 trig=  2.90712e-08
tphl                =  1.73910e-09 targ=  1.10953e-07 trig=  1.09214e-07
i_vdd_avg           =  -1.20384e-06 from=  1.00000e-08 to=  3.30002e-07
power_avg_uw        =  2.22464e+00


Total analysis time (seconds) = 1.60751

Total elapsed time (seconds) = 1.779 

Total DRAM available = 16384.000 MB.
DRAM currently available =  133.062 MB.
Maximum ngspice program size =   26.578 MB.
Current ngspice program size =   26.578 MB.

