
Note: Compatibility modes selected: hs a


Circuit: SKY130 library cell oai21_4 A1_to_Y__A2=0,B1=1

option SCALE: Scale is set to 1e-06 for instance and model parameters
Doing analysis at TEMP = 17.106191 and TNOM = 27.000000

Using KLU as Direct Linear Solver
 Reference value :  1.02214e-08
 Reference value :  4.02735e-08
 Reference value :  7.09485e-08
 Reference value :  1.02035e-07
 Reference value :  1.32790e-07
 Reference value :  1.63460e-07
 Reference value :  1.94499e-07
 Reference value :  2.21989e-07
 Reference value :  2.51144e-07
 Reference value :  2.82615e-07
 Reference value :  3.13245e-07
No. of Data Rows : 68032

  Measurements for Transient Analysis

tphl                =  7.06054e-10 targ=  2.61116e-08 trig=  2.54055e-08
tplh                =  1.53439e-09 targ=  9.97509e-08 trig=  9.82165e-08
i_vdd_avg           =  -1.92982e-06 from=  1.00000e-08 to=  3.30005e-07
power_avg_uw        =  3.21654e+00


Total analysis time (seconds) = 2.86588

Total elapsed time (seconds) = 3.039 

Total DRAM available = 16384.000 MB.
DRAM currently available =  145.250 MB.
Maximum ngspice program size =   25.891 MB.
Current ngspice program size =   25.891 MB.

