
Note: Compatibility modes selected: hs a


Circuit: SKY130 library cell nand2_4 A_to_Y__B=1

option SCALE: Scale is set to 1e-06 for instance and model parameters
Doing analysis at TEMP = 95.518534 and TNOM = 27.000000

Using KLU as Direct Linear Solver
 Reference value :  1.22064e-08
 Reference value :  5.82149e-08
 Reference value :  1.01167e-07
 Reference value :  1.44587e-07
 Reference value :  1.87483e-07
 Reference value :  2.31610e-07
 Reference value :  2.76147e-07
 Reference value :  3.19802e-07
No. of Data Rows : 68030

  Measurements for Transient Analysis

tphl                =  3.90801e-10 targ=  2.61520e-08 trig=  2.57612e-08
tplh                =  7.32703e-10 targ=  1.00016e-07 trig=  9.92837e-08
i_vdd_avg           =  -1.15234e-06 from=  1.00000e-08 to=  3.30002e-07
power_avg_uw        =  2.07741e+00


Total analysis time (seconds) = 1.96568

Total elapsed time (seconds) = 2.137 

Total DRAM available = 16384.000 MB.
DRAM currently available =  133.062 MB.
Maximum ngspice program size =   24.500 MB.
Current ngspice program size =   24.500 MB.

