
Note: Compatibility modes selected: hs a


Circuit: SKY130 library cell aoi21_4 A1_to_Y__A2=1,B1=0

option SCALE: Scale is set to 1e-06 for instance and model parameters
Doing analysis at TEMP = 116.141870 and TNOM = 27.000000

Using KLU as Direct Linear Solver
 Reference value :  9.66640e-09
 Reference value :  3.86604e-08
 Reference value :  6.71854e-08
 Reference value :  9.37154e-08
 Reference value :  1.23538e-07
 Reference value :  1.53923e-07
 Reference value :  1.84943e-07
 Reference value :  2.13335e-07
 Reference value :  2.43690e-07
 Reference value :  2.70853e-07
 Reference value :  2.99333e-07
 Reference value :  3.28063e-07
No. of Data Rows : 68034

  Measurements for Transient Analysis

tphl                =  3.50746e-10 targ=  2.58847e-08 trig=  2.55339e-08
tplh                =  6.85052e-10 targ=  9.92869e-08 trig=  9.86018e-08
i_vdd_avg           =  -1.15700e-06 from=  1.00000e-08 to=  3.30003e-07
power_avg_uw        =  2.15131e+00


Total analysis time (seconds) = 3.00464

Total elapsed time (seconds) = 3.168 

Total DRAM available = 16384.000 MB.
DRAM currently available =  118.031 MB.
Maximum ngspice program size =   26.625 MB.
Current ngspice program size =   26.625 MB.

