
Note: Compatibility modes selected: hs a


Circuit: SKY130 library cell nor2_4 A_to_Y__B=0

option SCALE: Scale is set to 1e-06 for instance and model parameters
Doing analysis at TEMP = 82.244896 and TNOM = 27.000000

Using KLU as Direct Linear Solver
 Reference value :  1.49064e-08
 Reference value :  6.02594e-08
 Reference value :  1.03744e-07
 Reference value :  1.52316e-07
 Reference value :  1.95419e-07
 Reference value :  2.40054e-07
 Reference value :  2.80516e-07
 Reference value :  3.26946e-07
No. of Data Rows : 68030

  Measurements for Transient Analysis

tphl                =  6.93523e-10 targ=  2.74970e-08 trig=  2.68034e-08
tplh                =  1.68369e-09 targ=  1.04094e-07 trig=  1.02410e-07
i_vdd_avg           =  -1.45503e-06 from=  1.00000e-08 to=  3.30001e-07
power_avg_uw        =  2.36688e+00


Total analysis time (seconds) = 1.97369

Total elapsed time (seconds) = 2.144 

Total DRAM available = 16384.000 MB.
DRAM currently available =  131.875 MB.
Maximum ngspice program size =   27.688 MB.
Current ngspice program size =   27.688 MB.

