
Note: Compatibility modes selected: hs a


Circuit: SKY130 library cell mux2_1 A0_to_X__A1=0,S=0

option SCALE: Scale is set to 1e-06 for instance and model parameters
Doing analysis at TEMP = 105.354920 and TNOM = 27.000000

Using KLU as Direct Linear Solver
 Reference value :  1.65714e-08
 Reference value :  6.77650e-08
 Reference value :  1.20607e-07
 Reference value :  1.78217e-07
 Reference value :  2.35175e-07
 Reference value :  2.89167e-07
No. of Data Rows : 68030

  Measurements for Transient Analysis

tplh                =  3.50282e-10 targ=  2.67515e-08 trig=  2.64012e-08
tphl                =  9.80002e-10 targ=  1.02184e-07 trig=  1.01204e-07
i_vdd_avg           =  -6.61009e-07 from=  1.00000e-08 to=  3.30002e-07
power_avg_uw        =  1.24739e+00


Total analysis time (seconds) = 1.57635

Total elapsed time (seconds) = 1.746 

Total DRAM available = 16384.000 MB.
DRAM currently available =  104.219 MB.
Maximum ngspice program size =   26.594 MB.
Current ngspice program size =   26.594 MB.

