
Note: Compatibility modes selected: hs a


Circuit: SKY130 library cell aoi21_4 A1_to_Y__A2=1,B1=0

option SCALE: Scale is set to 1e-06 for instance and model parameters
Doing analysis at TEMP = -9.901927 and TNOM = 27.000000

Using KLU as Direct Linear Solver
 Reference value :  7.69640e-09
 Reference value :  3.62880e-08
 Reference value :  6.15930e-08
 Reference value :  9.19430e-08
 Reference value :  1.21864e-07
 Reference value :  1.49944e-07
 Reference value :  1.79579e-07
 Reference value :  2.06843e-07
 Reference value :  2.36318e-07
 Reference value :  2.66468e-07
 Reference value :  2.95249e-07
 Reference value :  3.22464e-07
No. of Data Rows : 68032

  Measurements for Transient Analysis

tphl                =  5.42266e-10 targ=  2.95625e-08 trig=  2.90203e-08
tplh                =  2.41277e-09 targ=  1.11474e-07 trig=  1.09061e-07
i_vdd_avg           =  -1.40984e-06 from=  1.00000e-08 to=  3.30004e-07
power_avg_uw        =  2.53714e+00


Total analysis time (seconds) = 3.01797

Total elapsed time (seconds) = 3.191 

Total DRAM available = 16384.000 MB.
DRAM currently available =  133.062 MB.
Maximum ngspice program size =   26.344 MB.
Current ngspice program size =   26.344 MB.

