
Note: Compatibility modes selected: hs a


Circuit: SKY130 library cell mux2_1 A0_to_X__A1=0,S=0

option SCALE: Scale is set to 1e-06 for instance and model parameters
Doing analysis at TEMP = 3.634492 and TNOM = 27.000000

Using KLU as Direct Linear Solver
 Reference value :  2.31064e-08
 Reference value :  8.55963e-08
 Reference value :  1.47020e-07
 Reference value :  2.11416e-07
 Reference value :  2.73355e-07
 Reference value :  3.31545e-07
No. of Data Rows : 68032

  Measurements for Transient Analysis

tplh                =  3.33738e-10 targ=  2.49506e-08 trig=  2.46169e-08
tphl                =  5.56438e-10 targ=  9.64071e-08 trig=  9.58507e-08
i_vdd_avg           =  -2.24068e-07 from=  1.00000e-08 to=  3.30000e-07
power_avg_uw        =  3.83934e-01


Total analysis time (seconds) = 1.4358

Total elapsed time (seconds) = 1.602 

Total DRAM available = 16384.000 MB.
DRAM currently available =  164.922 MB.
Maximum ngspice program size =   27.859 MB.
Current ngspice program size =   27.859 MB.

