
Note: Compatibility modes selected: hs a


Circuit: SKY130 library cell nor2_4 A_to_Y__B=0

option SCALE: Scale is set to 1e-06 for instance and model parameters
Doing analysis at TEMP = 108.394860 and TNOM = 27.000000

Using KLU as Direct Linear Solver
 Reference value :  1.54214e-08
 Reference value :  6.22823e-08
 Reference value :  1.08902e-07
 Reference value :  1.53252e-07
 Reference value :  2.00772e-07
 Reference value :  2.47897e-07
 Reference value :  2.93222e-07
 Reference value :  3.38812e-07
No. of Data Rows : 68032

  Measurements for Transient Analysis

tphl                =  -1.50689e-10 targ=  2.79442e-08 trig=  2.80949e-08
tplh                =  8.55720e-10 targ=  1.07140e-07 trig=  1.06285e-07
i_vdd_avg           =  -1.80053e-06 from=  1.00000e-08 to=  3.30002e-07
power_avg_uw        =  3.54259e+00


Total analysis time (seconds) = 1.8938

Total elapsed time (seconds) = 2.089 

Total DRAM available = 16384.000 MB.
DRAM currently available =  144.250 MB.
Maximum ngspice program size =   26.703 MB.
Current ngspice program size =   26.703 MB.

