
Note: Compatibility modes selected: hs a


Circuit: SKY130 library cell inv_1 A_to_Y

option SCALE: Scale is set to 1e-06 for instance and model parameters
Doing analysis at TEMP = 14.849124 and TNOM = 27.000000

Using KLU as Direct Linear Solver
 Reference value :  1.22288e-07
No. of Data Rows : 68032

  Measurements for Transient Analysis

tphl                =  8.26516e-10 targ=  2.56341e-08 trig=  2.48076e-08
tplh                =  1.52346e-09 targ=  9.79461e-08 trig=  9.64227e-08
i_vdd_avg           =  -2.37619e-06 from=  1.00000e-08 to=  3.30003e-07
power_avg_uw        =  4.68556e+00


Total analysis time (seconds) = 0.310098

Total elapsed time (seconds) = 0.458 

Total DRAM available = 16384.000 MB.
DRAM currently available =  141.953 MB.
Maximum ngspice program size =   24.797 MB.
Current ngspice program size =   24.797 MB.

