
Note: Compatibility modes selected: hs a


Circuit: SKY130 library cell nor2_4 A_to_Y__B=0

option SCALE: Scale is set to 1e-06 for instance and model parameters
Doing analysis at TEMP = 63.755780 and TNOM = 27.000000

Using KLU as Direct Linear Solver
 Reference value :  1.28514e-08
 Reference value :  5.50144e-08
 Reference value :  9.66894e-08
 Reference value :  1.38591e-07
 Reference value :  1.83426e-07
 Reference value :  2.23244e-07
 Reference value :  2.69296e-07
 Reference value :  3.10441e-07
No. of Data Rows : 68030

  Measurements for Transient Analysis

tphl                =  4.34159e-10 targ=  2.54926e-08 trig=  2.50584e-08
tplh                =  1.02279e-09 targ=  9.81981e-08 trig=  9.71753e-08
i_vdd_avg           =  -2.25801e-06 from=  1.00000e-08 to=  3.30001e-07
power_avg_uw        =  4.21006e+00


Total analysis time (seconds) = 2.0255

Total elapsed time (seconds) = 2.198 

Total DRAM available = 16384.000 MB.
DRAM currently available =  155.500 MB.
Maximum ngspice program size =   28.078 MB.
Current ngspice program size =   28.078 MB.

