
Note: Compatibility modes selected: hs a


Circuit: SKY130 library cell inv_4 A_to_Y

option SCALE: Scale is set to 1e-06 for instance and model parameters
Doing analysis at TEMP = 39.916960 and TNOM = 27.000000

Using KLU as Direct Linear Solver
 Reference value :  2.84575e-08
 Reference value :  1.13562e-07
 Reference value :  1.94160e-07
 Reference value :  2.75482e-07
No. of Data Rows : 68030

  Measurements for Transient Analysis

tphl                =  4.90635e-10 targ=  2.69417e-08 trig=  2.64510e-08
tplh                =  1.27335e-09 targ=  1.02626e-07 trig=  1.01353e-07
i_vdd_avg           =  -9.26745e-07 from=  1.00000e-08 to=  3.30002e-07
power_avg_uw        =  1.51491e+00


Total analysis time (seconds) = 1.05419

Total elapsed time (seconds) = 1.211 

Total DRAM available = 16384.000 MB.
DRAM currently available =  153.531 MB.
Maximum ngspice program size =   26.531 MB.
Current ngspice program size =   26.531 MB.

