
Note: Compatibility modes selected: hs a


Circuit: SKY130 library cell xor2_1 A_to_X__B=0

option SCALE: Scale is set to 1e-06 for instance and model parameters
Doing analysis at TEMP = 95.870072 and TNOM = 27.000000

Using KLU as Direct Linear Solver
 Reference value :  2.25014e-08
 Reference value :  8.61346e-08
 Reference value :  1.52732e-07
 Reference value :  2.24115e-07
 Reference value :  2.91972e-07
No. of Data Rows : 68030

  Measurements for Transient Analysis

tplh                =  3.78827e-10 targ=  2.56074e-08 trig=  2.52286e-08
tphl                =  4.78588e-10 targ=  9.81643e-08 trig=  9.76857e-08
i_vdd_avg           =  -2.60001e-07 from=  1.00000e-08 to=  3.30002e-07
power_avg_uw        =  4.40832e-01


Total analysis time (seconds) = 1.31372

Total elapsed time (seconds) = 1.477 

Total DRAM available = 16384.000 MB.
DRAM currently available =  148.797 MB.
Maximum ngspice program size =   26.516 MB.
Current ngspice program size =   26.516 MB.

