
Note: Compatibility modes selected: hs a


Circuit: SKY130 library cell inv_1 A_to_Y

option SCALE: Scale is set to 1e-06 for instance and model parameters
Doing analysis at TEMP = 26.483812 and TNOM = 27.000000

Using KLU as Direct Linear Solver
 Reference value :  1.05778e-07
No. of Data Rows : 68034

  Measurements for Transient Analysis

tphl                =  1.23154e-09 targ=  2.78829e-08 trig=  2.66514e-08
tplh                =  2.38864e-09 targ=  1.04343e-07 trig=  1.01954e-07
i_vdd_avg           =  -9.71256e-07 from=  1.00000e-08 to=  3.30003e-07
power_avg_uw        =  1.59487e+00


Total analysis time (seconds) = 0.350397

Total elapsed time (seconds) = 0.498 

Total DRAM available = 16384.000 MB.
DRAM currently available =  131.875 MB.
Maximum ngspice program size =   25.031 MB.
Current ngspice program size =   25.031 MB.

