
Note: Compatibility modes selected: hs a


Circuit: SKY130 library cell nand3_4 A_to_Y__B=1,C=1

option SCALE: Scale is set to 1e-06 for instance and model parameters
Doing analysis at TEMP = -2.990258 and TNOM = 27.000000

Using KLU as Direct Linear Solver
 Reference value :  1.35714e-08
 Reference value :  4.45555e-08
 Reference value :  7.81705e-08
 Reference value :  1.08986e-07
 Reference value :  1.40054e-07
 Reference value :  1.74284e-07
 Reference value :  2.05771e-07
 Reference value :  2.36266e-07
 Reference value :  2.68741e-07
 Reference value :  3.01449e-07
 Reference value :  3.32729e-07
No. of Data Rows : 68034

  Measurements for Transient Analysis

tphl                =  1.50526e-09 targ=  3.02843e-08 trig=  2.87790e-08
tplh                =  2.99210e-09 targ=  1.11329e-07 trig=  1.08337e-07
i_vdd_avg           =  -1.96576e-06 from=  1.00000e-08 to=  3.30004e-07
power_avg_uw        =  3.19364e+00


Total analysis time (seconds) = 2.73831

Total elapsed time (seconds) = 2.892 

Total DRAM available = 16384.000 MB.
DRAM currently available =  155.688 MB.
Maximum ngspice program size =   26.375 MB.
Current ngspice program size =   26.375 MB.

