
Note: Compatibility modes selected: hs a


Circuit: SKY130 library cell inv_4 A_to_Y

option SCALE: Scale is set to 1e-06 for instance and model parameters
Doing analysis at TEMP = 64.090818 and TNOM = 27.000000

Using KLU as Direct Linear Solver
 Reference value :  3.20863e-08
 Reference value :  1.20185e-07
 Reference value :  2.01071e-07
 Reference value :  2.84215e-07
No. of Data Rows : 68032

  Measurements for Transient Analysis

tphl                =  6.24097e-10 targ=  2.61360e-08 trig=  2.55119e-08
tplh                =  1.17934e-09 targ=  9.97151e-08 trig=  9.85357e-08
i_vdd_avg           =  -2.09274e-06 from=  1.00000e-08 to=  3.30000e-07
power_avg_uw        =  3.52828e+00


Total analysis time (seconds) = 1.00508

Total elapsed time (seconds) = 1.154 

Total DRAM available = 16384.000 MB.
DRAM currently available =  155.688 MB.
Maximum ngspice program size =   25.594 MB.
Current ngspice program size =   25.594 MB.

