
Note: Compatibility modes selected: hs a


Circuit: SKY130 library cell oai21_1 A1_to_Y__A2=0,B1=1

option SCALE: Scale is set to 1e-06 for instance and model parameters
Doing analysis at TEMP = 82.346776 and TNOM = 27.000000

Using KLU as Direct Linear Solver
 Reference value :  4.06002e-08
 Reference value :  1.41358e-07
 Reference value :  2.39430e-07
No. of Data Rows : 68034

  Measurements for Transient Analysis

tphl                =  1.37556e-09 targ=  2.66269e-08 trig=  2.52513e-08
tplh                =  2.94597e-09 targ=  1.00700e-07 trig=  9.77540e-08
i_vdd_avg           =  -1.74937e-06 from=  1.00000e-08 to=  3.30003e-07
power_avg_uw        =  2.96750e+00


Total analysis time (seconds) = 0.844492

Total elapsed time (seconds) = 0.999 

Total DRAM available = 16384.000 MB.
DRAM currently available =  159.406 MB.
Maximum ngspice program size =   27.062 MB.
Current ngspice program size =   27.062 MB.

