
Note: Compatibility modes selected: hs a


Circuit: SKY130 library cell aoi21_1 A1_to_Y__A2=1,B1=0

option SCALE: Scale is set to 1e-06 for instance and model parameters
Doing analysis at TEMP = 107.186910 and TNOM = 27.000000

Using KLU as Direct Linear Solver
 Reference value :  3.25983e-08
 Reference value :  1.30554e-07
 Reference value :  2.36618e-07
 Reference value :  3.38654e-07
No. of Data Rows : 68032

  Measurements for Transient Analysis

tphl                =  9.01654e-10 targ=  2.63496e-08 trig=  2.54479e-08
tplh                =  1.49776e-09 targ=  9.98415e-08 trig=  9.83438e-08
i_vdd_avg           =  -9.19033e-07 from=  1.00000e-08 to=  3.30004e-07
power_avg_uw        =  1.68569e+00


Total analysis time (seconds) = 0.850965

Total elapsed time (seconds) = 1.018 

Total DRAM available = 16384.000 MB.
DRAM currently available =  125.312 MB.
Maximum ngspice program size =   27.000 MB.
Current ngspice program size =   27.000 MB.

