
Note: Compatibility modes selected: hs a


Circuit: SKY130 library cell xor2_1 A_to_X__B=0

option SCALE: Scale is set to 1e-06 for instance and model parameters
Doing analysis at TEMP = -18.046109 and TNOM = 27.000000

Using KLU as Direct Linear Solver
 Reference value :  2.07214e-08
 Reference value :  8.15773e-08
 Reference value :  1.50262e-07
 Reference value :  2.24207e-07
 Reference value :  2.93027e-07
No. of Data Rows : 68032

  Measurements for Transient Analysis

tplh                =  8.58671e-10 targ=  2.97761e-08 trig=  2.89174e-08
tphl                =  1.46351e-09 targ=  1.10216e-07 trig=  1.08752e-07
i_vdd_avg           =  -1.44784e-06 from=  1.00000e-08 to=  3.30002e-07
power_avg_uw        =  2.84270e+00


Total analysis time (seconds) = 1.31071

Total elapsed time (seconds) = 1.470 

Total DRAM available = 16384.000 MB.
DRAM currently available =  131.875 MB.
Maximum ngspice program size =   26.984 MB.
Current ngspice program size =   26.984 MB.

