
Note: Compatibility modes selected: hs a


Circuit: SKY130 library cell aoi21_4 A1_to_Y__A2=1,B1=0

option SCALE: Scale is set to 1e-06 for instance and model parameters
Doing analysis at TEMP = 64.292926 and TNOM = 27.000000

Using KLU as Direct Linear Solver
 Reference value :  7.31140e-09
 Reference value :  3.65852e-08
 Reference value :  6.67302e-08
 Reference value :  9.59402e-08
 Reference value :  1.27198e-07
 Reference value :  1.56068e-07
 Reference value :  1.83533e-07
 Reference value :  2.12110e-07
 Reference value :  2.40370e-07
 Reference value :  2.69200e-07
 Reference value :  2.98273e-07
 Reference value :  3.29718e-07
No. of Data Rows : 68034

  Measurements for Transient Analysis

tphl                =  6.80985e-10 targ=  2.86523e-08 trig=  2.79714e-08
tplh                =  1.83047e-09 targ=  1.07745e-07 trig=  1.05914e-07
i_vdd_avg           =  -2.33189e-06 from=  1.00000e-08 to=  3.30003e-07
power_avg_uw        =  4.35180e+00


Total analysis time (seconds) = 2.954

Total elapsed time (seconds) = 3.140 

Total DRAM available = 16384.000 MB.
DRAM currently available =  104.219 MB.
Maximum ngspice program size =   27.156 MB.
Current ngspice program size =   27.156 MB.

