
Note: Compatibility modes selected: hs a


Circuit: SKY130 library cell inv_4 A_to_Y

option SCALE: Scale is set to 1e-06 for instance and model parameters
Doing analysis at TEMP = 90.508468 and TNOM = 27.000000

Using KLU as Direct Linear Solver
 Reference value :  3.11044e-08
 Reference value :  1.16301e-07
 Reference value :  2.01279e-07
 Reference value :  2.87446e-07
No. of Data Rows : 68030

  Measurements for Transient Analysis

tphl                =  -3.70875e-11 targ=  2.69713e-08 trig=  2.70084e-08
tplh                =  6.18433e-10 targ=  1.03644e-07 trig=  1.03025e-07
i_vdd_avg           =  -8.97445e-07 from=  1.00000e-08 to=  3.30001e-07
power_avg_uw        =  1.64378e+00


Total analysis time (seconds) = 1.03697

Total elapsed time (seconds) = 1.182 

Total DRAM available = 16384.000 MB.
DRAM currently available =  145.250 MB.
Maximum ngspice program size =   25.016 MB.
Current ngspice program size =   25.016 MB.

