
Note: Compatibility modes selected: hs a


Circuit: SKY130 library cell mux2_4 A0_to_X__A1=0,S=0

option SCALE: Scale is set to 1e-06 for instance and model parameters
Doing analysis at TEMP = 49.286547 and TNOM = 27.000000

Using KLU as Direct Linear Solver
 Reference value :  1.12964e-08
 Reference value :  5.10796e-08
 Reference value :  8.75646e-08
 Reference value :  1.26567e-07
 Reference value :  1.61327e-07
 Reference value :  1.98950e-07
 Reference value :  2.35340e-07
 Reference value :  2.72022e-07
 Reference value :  3.09477e-07
No. of Data Rows : 68030

  Measurements for Transient Analysis

tplh                =  2.29619e-10 targ=  2.42582e-08 trig=  2.40286e-08
tphl                =  2.86894e-10 targ=  9.43726e-08 trig=  9.40857e-08
i_vdd_avg           =  -1.04765e-06 from=  1.00000e-08 to=  3.30002e-07
power_avg_uw        =  1.90764e+00


Total analysis time (seconds) = 2.30918

Total elapsed time (seconds) = 2.469 

Total DRAM available = 16384.000 MB.
DRAM currently available =   94.391 MB.
Maximum ngspice program size =   24.766 MB.
Current ngspice program size =   24.766 MB.

