
Note: Compatibility modes selected: hs a


Circuit: SKY130 library cell oai21_1 A1_to_Y__A2=0,B1=1

option SCALE: Scale is set to 1e-06 for instance and model parameters
Doing analysis at TEMP = -4.210076 and TNOM = 27.000000

Using KLU as Direct Linear Solver
 Reference value :  3.67401e-08
 Reference value :  1.39518e-07
 Reference value :  2.42650e-07
No. of Data Rows : 68034

  Measurements for Transient Analysis

tphl                =  1.17072e-09 targ=  2.61770e-08 trig=  2.50063e-08
tplh                =  3.12298e-09 targ=  1.00142e-07 trig=  9.70189e-08
i_vdd_avg           =  -2.33243e-06 from=  1.00000e-08 to=  3.30003e-07
power_avg_uw        =  4.35542e+00


Total analysis time (seconds) = 0.844289

Total elapsed time (seconds) = 1.002 

Total DRAM available = 16384.000 MB.
DRAM currently available =  136.484 MB.
Maximum ngspice program size =   25.078 MB.
Current ngspice program size =   25.078 MB.

