
Note: Compatibility modes selected: hs a


Circuit: SKY130 library cell xor2_4 A_to_X__B=0

option SCALE: Scale is set to 1e-06 for instance and model parameters
Doing analysis at TEMP = -20.555499 and TNOM = 27.000000

Using KLU as Direct Linear Solver
 Reference value :  4.19140e-09
 Reference value :  2.26114e-08
 Reference value :  4.04240e-08
 Reference value :  5.87640e-08
 Reference value :  7.66490e-08
 Reference value :  9.53540e-08
 Reference value :  1.13666e-07
 Reference value :  1.33421e-07
 Reference value :  1.52076e-07
 Reference value :  1.68906e-07
 Reference value :  1.85308e-07
 Reference value :  2.03514e-07
 Reference value :  2.20464e-07
 Reference value :  2.37294e-07
 Reference value :  2.54774e-07
 Reference value :  2.72906e-07
 Reference value :  2.90761e-07
 Reference value :  3.08156e-07
 Reference value :  3.26301e-07
No. of Data Rows : 68030

  Measurements for Transient Analysis

tplh                =  5.45324e-10 targ=  2.60061e-08 trig=  2.54608e-08
tphl                =  8.11687e-10 targ=  9.91940e-08 trig=  9.83823e-08
i_vdd_avg           =  -1.02241e-06 from=  1.00000e-08 to=  3.30001e-07
power_avg_uw        =  1.70692e+00


Total analysis time (seconds) = 4.88213

Total elapsed time (seconds) = 5.065 

Total DRAM available = 16384.000 MB.
DRAM currently available =  155.500 MB.
Maximum ngspice program size =   30.453 MB.
Current ngspice program size =   30.453 MB.

