
Note: Compatibility modes selected: hs a


Circuit: SKY130 library cell nand3_1 A_to_Y__B=1,C=1

option SCALE: Scale is set to 1e-06 for instance and model parameters
Doing analysis at TEMP = 90.097714 and TNOM = 27.000000

Using KLU as Direct Linear Solver
 Reference value :  3.84850e-08
 Reference value :  1.43807e-07
 Reference value :  2.49955e-07
No. of Data Rows : 68030

  Measurements for Transient Analysis

tphl                =  6.30532e-10 targ=  2.55393e-08 trig=  2.49087e-08
tplh                =  7.33241e-10 targ=  9.74594e-08 trig=  9.67262e-08
i_vdd_avg           =  -5.19227e-07 from=  1.00000e-08 to=  3.30002e-07
power_avg_uw        =  9.44552e-01


Total analysis time (seconds) = 0.831914

Total elapsed time (seconds) = 0.980 

Total DRAM available = 16384.000 MB.
DRAM currently available =  145.250 MB.
Maximum ngspice program size =   26.500 MB.
Current ngspice program size =   26.500 MB.

