
Note: Compatibility modes selected: hs a


Circuit: SKY130 library cell nand2_4 A_to_Y__B=1

option SCALE: Scale is set to 1e-06 for instance and model parameters
Doing analysis at TEMP = 27.795127 and TNOM = 27.000000

Using KLU as Direct Linear Solver
 Reference value :  1.56864e-08
 Reference value :  6.05744e-08
 Reference value :  1.09259e-07
 Reference value :  1.55906e-07
 Reference value :  2.03479e-07
 Reference value :  2.50679e-07
 Reference value :  2.98961e-07
No. of Data Rows : 68030

  Measurements for Transient Analysis

tphl                =  1.31798e-09 targ=  3.09489e-08 trig=  2.96310e-08
tplh                =  2.97168e-09 targ=  1.13865e-07 trig=  1.10893e-07
i_vdd_avg           =  -2.19534e-06 from=  1.00000e-08 to=  3.30001e-07
power_avg_uw        =  3.64000e+00


Total analysis time (seconds) = 1.86512

Total elapsed time (seconds) = 2.033 

Total DRAM available = 16384.000 MB.
DRAM currently available =  164.922 MB.
Maximum ngspice program size =   26.656 MB.
Current ngspice program size =   26.656 MB.

