
Note: Compatibility modes selected: hs a


Circuit: SKY130 library cell mux2_4 A0_to_X__A1=0,S=0

option SCALE: Scale is set to 1e-06 for instance and model parameters
Doing analysis at TEMP = 89.451473 and TNOM = 27.000000

Using KLU as Direct Linear Solver
 Reference value :  1.39464e-08
 Reference value :  5.28555e-08
 Reference value :  9.41305e-08
 Reference value :  1.30098e-07
 Reference value :  1.69513e-07
 Reference value :  2.03905e-07
 Reference value :  2.45705e-07
 Reference value :  2.84363e-07
 Reference value :  3.22253e-07
No. of Data Rows : 68034

  Measurements for Transient Analysis

tplh                =  4.45434e-10 targ=  2.57169e-08 trig=  2.52715e-08
tphl                =  7.51812e-10 targ=  9.85663e-08 trig=  9.78145e-08
i_vdd_avg           =  -7.60095e-07 from=  1.00000e-08 to=  3.30003e-07
power_avg_uw        =  1.31179e+00


Total analysis time (seconds) = 2.28139

Total elapsed time (seconds) = 2.430 

Total DRAM available = 16384.000 MB.
DRAM currently available =  122.516 MB.
Maximum ngspice program size =   25.125 MB.
Current ngspice program size =   25.125 MB.

