
Note: Compatibility modes selected: hs a


Circuit: SKY130 library cell nor2_1 A_to_Y__B=0

option SCALE: Scale is set to 1e-06 for instance and model parameters
Doing analysis at TEMP = 2.478311 and TNOM = 27.000000

Using KLU as Direct Linear Solver
 Reference value :  5.70940e-08
 Reference value :  1.92919e-07
No. of Data Rows : 68030

  Measurements for Transient Analysis

tphl                =  1.40060e-09 targ=  2.90863e-08 trig=  2.76857e-08
tplh                =  3.80283e-09 targ=  1.08860e-07 trig=  1.05057e-07
i_vdd_avg           =  -2.27197e-06 from=  1.00000e-08 to=  3.30000e-07
power_avg_uw        =  4.45760e+00


Total analysis time (seconds) = 0.606288

Total elapsed time (seconds) = 0.753 

Total DRAM available = 16384.000 MB.
DRAM currently available =  146.047 MB.
Maximum ngspice program size =   26.641 MB.
Current ngspice program size =   26.641 MB.

