
Note: Compatibility modes selected: hs a


Circuit: SKY130 library cell nand2_1 A_to_Y__B=1

option SCALE: Scale is set to 1e-06 for instance and model parameters
Doing analysis at TEMP = 33.331759 and TNOM = 27.000000

Using KLU as Direct Linear Solver
 Reference value :  5.54583e-08
 Reference value :  2.03008e-07
No. of Data Rows : 68032

  Measurements for Transient Analysis

tphl                =  1.17095e-09 targ=  2.59788e-08 trig=  2.48079e-08
tplh                =  1.66374e-09 targ=  9.80874e-08 trig=  9.64236e-08
i_vdd_avg           =  -2.01206e-06 from=  1.00000e-08 to=  3.30004e-07
power_avg_uw        =  3.59083e+00


Total analysis time (seconds) = 0.558722

Total elapsed time (seconds) = 0.706 

Total DRAM available = 16384.000 MB.
DRAM currently available =  153.531 MB.
Maximum ngspice program size =   25.359 MB.
Current ngspice program size =   25.359 MB.

