
Note: Compatibility modes selected: hs a


Circuit: SKY130 library cell nand3_4 A_to_Y__B=1,C=1

option SCALE: Scale is set to 1e-06 for instance and model parameters
Doing analysis at TEMP = 51.915993 and TNOM = 27.000000

Using KLU as Direct Linear Solver
 Reference value :  9.78640e-09
 Reference value :  4.12006e-08
 Reference value :  7.05806e-08
 Reference value :  1.00684e-07
 Reference value :  1.31564e-07
 Reference value :  1.61904e-07
 Reference value :  1.91881e-07
 Reference value :  2.21906e-07
 Reference value :  2.50741e-07
 Reference value :  2.80074e-07
 Reference value :  3.13659e-07
No. of Data Rows : 68034

  Measurements for Transient Analysis

tphl                =  2.09585e-10 targ=  2.45162e-08 trig=  2.43066e-08
tplh                =  2.63119e-10 targ=  9.51828e-08 trig=  9.49197e-08
i_vdd_avg           =  -8.36938e-07 from=  1.00000e-08 to=  3.30004e-07
power_avg_uw        =  1.59565e+00


Total analysis time (seconds) = 2.91106

Total elapsed time (seconds) = 3.077 

Total DRAM available = 16384.000 MB.
DRAM currently available =  131.875 MB.
Maximum ngspice program size =   27.141 MB.
Current ngspice program size =   27.141 MB.

