
Note: Compatibility modes selected: hs a


Circuit: SKY130 library cell nor2_4 A_to_Y__B=0

option SCALE: Scale is set to 1e-06 for instance and model parameters
Doing analysis at TEMP = 5.283630 and TNOM = 27.000000

Using KLU as Direct Linear Solver
 Reference value :  1.07064e-08
 Reference value :  5.30475e-08
 Reference value :  9.72325e-08
 Reference value :  1.40112e-07
 Reference value :  1.85948e-07
 Reference value :  2.33112e-07
 Reference value :  2.79902e-07
 Reference value :  3.33527e-07
No. of Data Rows : 68032

  Measurements for Transient Analysis

tphl                =  4.98512e-10 targ=  2.78235e-08 trig=  2.73250e-08
tplh                =  1.92856e-09 targ=  1.05904e-07 trig=  1.03975e-07
i_vdd_avg           =  -1.93823e-06 from=  1.00000e-08 to=  3.30002e-07
power_avg_uw        =  3.57297e+00


Total analysis time (seconds) = 1.86444

Total elapsed time (seconds) = 2.042 

Total DRAM available = 16384.000 MB.
DRAM currently available =  199.719 MB.
Maximum ngspice program size =   26.359 MB.
Current ngspice program size =   26.359 MB.

