
Note: Compatibility modes selected: hs a


Circuit: SKY130 library cell nor2_1 A_to_Y__B=0

option SCALE: Scale is set to 1e-06 for instance and model parameters
Doing analysis at TEMP = -32.984388 and TNOM = 27.000000

Using KLU as Direct Linear Solver
 Reference value :  5.17866e-08
 Reference value :  1.88558e-07
 Reference value :  3.21151e-07
No. of Data Rows : 68032

  Measurements for Transient Analysis

tphl                =  8.28535e-10 targ=  3.05756e-08 trig=  2.97471e-08
tplh                =  3.50949e-09 targ=  1.14751e-07 trig=  1.11241e-07
i_vdd_avg           =  -5.05876e-07 from=  1.00000e-08 to=  3.30001e-07
power_avg_uw        =  8.87287e-01


Total analysis time (seconds) = 0.631939

Total elapsed time (seconds) = 0.791 

Total DRAM available = 16384.000 MB.
DRAM currently available =  120.203 MB.
Maximum ngspice program size =   26.203 MB.
Current ngspice program size =   26.203 MB.

