
Note: Compatibility modes selected: hs a


Circuit: SKY130 library cell aoi21_1 A1_to_Y__A2=1,B1=0

option SCALE: Scale is set to 1e-06 for instance and model parameters
Doing analysis at TEMP = 68.635271 and TNOM = 27.000000

Using KLU as Direct Linear Solver
 Reference value :  2.90275e-08
 Reference value :  1.41656e-07
 Reference value :  2.55712e-07
No. of Data Rows : 68032

  Measurements for Transient Analysis

tphl                =  6.22808e-10 targ=  2.72148e-08 trig=  2.65920e-08
tplh                =  1.39008e-09 targ=  1.03166e-07 trig=  1.01776e-07
i_vdd_avg           =  -3.16674e-07 from=  1.00000e-08 to=  3.30001e-07
power_avg_uw        =  5.40230e-01


Total analysis time (seconds) = 0.782524

Total elapsed time (seconds) = 0.947 

Total DRAM available = 16384.000 MB.
DRAM currently available =  155.688 MB.
Maximum ngspice program size =   26.969 MB.
Current ngspice program size =   26.969 MB.

