
Note: Compatibility modes selected: hs a


Circuit: SKY130 library cell aoi21_1 A1_to_Y__A2=1,B1=0

option SCALE: Scale is set to 1e-06 for instance and model parameters
Doing analysis at TEMP = -28.714921 and TNOM = 27.000000

Using KLU as Direct Linear Solver
 Reference value :  4.65435e-08
 Reference value :  1.61084e-07
 Reference value :  2.68073e-07
No. of Data Rows : 68032

  Measurements for Transient Analysis

tphl                =  1.14828e-09 targ=  3.04363e-08 trig=  2.92880e-08
tplh                =  3.53148e-09 targ=  1.13395e-07 trig=  1.09864e-07
i_vdd_avg           =  -6.43645e-07 from=  1.00000e-08 to=  3.30004e-07
power_avg_uw        =  1.13588e+00


Total analysis time (seconds) = 0.789722

Total elapsed time (seconds) = 0.932 

Total DRAM available = 16384.000 MB.
DRAM currently available =  136.484 MB.
Maximum ngspice program size =   24.031 MB.
Current ngspice program size =   24.031 MB.

