
Note: Compatibility modes selected: hs a


Circuit: SKY130 library cell oai21_4 A1_to_Y__A2=0,B1=1

option SCALE: Scale is set to 1e-06 for instance and model parameters
Doing analysis at TEMP = 72.498962 and TNOM = 27.000000

Using KLU as Direct Linear Solver
 Reference value :  9.93140e-09
 Reference value :  3.90468e-08
 Reference value :  6.90418e-08
 Reference value :  9.87168e-08
 Reference value :  1.28041e-07
 Reference value :  1.58151e-07
 Reference value :  1.86823e-07
 Reference value :  2.16942e-07
 Reference value :  2.46912e-07
 Reference value :  2.74451e-07
 Reference value :  3.00911e-07
 Reference value :  3.30596e-07
No. of Data Rows : 68032

  Measurements for Transient Analysis

tphl                =  1.70257e-10 targ=  2.64024e-08 trig=  2.62322e-08
tplh                =  7.69638e-10 targ=  1.01466e-07 trig=  1.00697e-07
i_vdd_avg           =  -9.07104e-07 from=  1.00000e-08 to=  3.30001e-07
power_avg_uw        =  1.71610e+00


Total analysis time (seconds) = 2.97694

Total elapsed time (seconds) = 3.132 

Total DRAM available = 16384.000 MB.
DRAM currently available =  114.391 MB.
Maximum ngspice program size =   25.703 MB.
Current ngspice program size =   25.703 MB.

