
Note: Compatibility modes selected: hs a


Circuit: SKY130 library cell inv_1 A_to_Y

option SCALE: Scale is set to 1e-06 for instance and model parameters
Doing analysis at TEMP = 43.361788 and TNOM = 27.000000

Using KLU as Direct Linear Solver
 Reference value :  8.93315e-08
 Reference value :  3.38130e-07
No. of Data Rows : 68032

  Measurements for Transient Analysis

tphl                =  1.05913e-09 targ=  3.04386e-08 trig=  2.93795e-08
tplh                =  2.87898e-09 targ=  1.13017e-07 trig=  1.10138e-07
i_vdd_avg           =  -1.39947e-06 from=  1.00000e-08 to=  3.30000e-07
power_avg_uw        =  2.68261e+00


Total analysis time (seconds) = 0.357175

Total elapsed time (seconds) = 0.508 

Total DRAM available = 16384.000 MB.
DRAM currently available =  126.031 MB.
Maximum ngspice program size =   24.406 MB.
Current ngspice program size =   24.406 MB.

