
Note: Compatibility modes selected: hs a


Circuit: SKY130 library cell inv_4 A_to_Y

option SCALE: Scale is set to 1e-06 for instance and model parameters
Doing analysis at TEMP = -4.346050 and TNOM = 27.000000

Using KLU as Direct Linear Solver
 Reference value :  3.85469e-08
 Reference value :  1.27156e-07
 Reference value :  2.20347e-07
 Reference value :  3.09566e-07
No. of Data Rows : 68032

  Measurements for Transient Analysis

tphl                =  -2.02392e-10 targ=  2.91398e-08 trig=  2.93422e-08
tplh                =  1.46071e-09 targ=  1.11487e-07 trig=  1.10027e-07
i_vdd_avg           =  -1.39696e-06 from=  1.00000e-08 to=  3.30001e-07
power_avg_uw        =  2.74821e+00


Total analysis time (seconds) = 0.926305

Total elapsed time (seconds) = 1.087 

Total DRAM available = 16384.000 MB.
DRAM currently available =  142.281 MB.
Maximum ngspice program size =   25.375 MB.
Current ngspice program size =   25.375 MB.

