
Note: Compatibility modes selected: hs a


Circuit: SKY130 library cell xor2_4 A_to_X__B=0

option SCALE: Scale is set to 1e-06 for instance and model parameters
Doing analysis at TEMP = 117.194400 and TNOM = 27.000000

Using KLU as Direct Linear Solver
 Reference value :  5.20640e-09
 Reference value :  2.26064e-08
 Reference value :  4.11764e-08
 Reference value :  5.99914e-08
 Reference value :  7.70564e-08
 Reference value :  9.32914e-08
 Reference value :  1.11296e-07
 Reference value :  1.30370e-07
 Reference value :  1.48215e-07
 Reference value :  1.64390e-07
 Reference value :  1.80975e-07
 Reference value :  1.98841e-07
 Reference value :  2.18201e-07
 Reference value :  2.36081e-07
 Reference value :  2.53146e-07
 Reference value :  2.70356e-07
 Reference value :  2.88395e-07
 Reference value :  3.06660e-07
 Reference value :  3.24745e-07
No. of Data Rows : 68032

  Measurements for Transient Analysis

tplh                =  4.06136e-10 targ=  2.95631e-08 trig=  2.91570e-08
tphl                =  1.05481e-09 targ=  1.10526e-07 trig=  1.09471e-07
i_vdd_avg           =  -2.23728e-06 from=  1.00000e-08 to=  3.30000e-07
power_avg_uw        =  3.80446e+00


Total analysis time (seconds) = 4.95729

Total elapsed time (seconds) = 5.138 

Total DRAM available = 16384.000 MB.
DRAM currently available =  148.797 MB.
Maximum ngspice program size =   26.922 MB.
Current ngspice program size =   26.922 MB.

