
Note: Compatibility modes selected: hs a


Circuit: SKY130 library cell mux2_1 A0_to_X__A1=0,S=0

option SCALE: Scale is set to 1e-06 for instance and model parameters
Doing analysis at TEMP = 31.026073 and TNOM = 27.000000

Using KLU as Direct Linear Solver
 Reference value :  1.82414e-08
 Reference value :  7.53176e-08
 Reference value :  1.40868e-07
 Reference value :  1.94833e-07
 Reference value :  2.49768e-07
 Reference value :  3.06723e-07
No. of Data Rows : 68032

  Measurements for Transient Analysis

tplh                =  9.01467e-10 targ=  2.86415e-08 trig=  2.77401e-08
tphl                =  1.62716e-09 targ=  1.06847e-07 trig=  1.05220e-07
i_vdd_avg           =  -2.08141e-06 from=  1.00000e-08 to=  3.30003e-07
power_avg_uw        =  4.01382e+00


Total analysis time (seconds) = 1.53664

Total elapsed time (seconds) = 1.694 

Total DRAM available = 16384.000 MB.
DRAM currently available =  146.047 MB.
Maximum ngspice program size =   27.406 MB.
Current ngspice program size =   27.406 MB.

