
Note: Compatibility modes selected: hs a


Circuit: SKY130 library cell mux2_4 A0_to_X__A1=0,S=0

option SCALE: Scale is set to 1e-06 for instance and model parameters
Doing analysis at TEMP = 106.006740 and TNOM = 27.000000

Using KLU as Direct Linear Solver
 Reference value :  1.04864e-08
 Reference value :  4.55043e-08
 Reference value :  8.59093e-08
 Reference value :  1.21286e-07
 Reference value :  1.60641e-07
 Reference value :  1.98584e-07
 Reference value :  2.36469e-07
 Reference value :  2.71591e-07
 Reference value :  3.10536e-07
No. of Data Rows : 68030

  Measurements for Transient Analysis

tplh                =  2.91920e-10 targ=  2.66478e-08 trig=  2.63559e-08
tphl                =  7.90934e-10 targ=  1.01859e-07 trig=  1.01068e-07
i_vdd_avg           =  -5.36883e-07 from=  1.00000e-08 to=  3.30001e-07
power_avg_uw        =  9.99131e-01


Total analysis time (seconds) = 2.32127

Total elapsed time (seconds) = 2.493 

Total DRAM available = 16384.000 MB.
DRAM currently available =  118.031 MB.
Maximum ngspice program size =   26.000 MB.
Current ngspice program size =   26.000 MB.

