
Note: Compatibility modes selected: hs a


Circuit: SKY130 library cell oai21_1 A1_to_Y__A2=0,B1=1

option SCALE: Scale is set to 1e-06 for instance and model parameters
Doing analysis at TEMP = 30.803401 and TNOM = 27.000000

Using KLU as Direct Linear Solver
 Reference value :  4.07461e-08
 Reference value :  1.38245e-07
 Reference value :  2.35871e-07
 Reference value :  3.39805e-07
No. of Data Rows : 68034

  Measurements for Transient Analysis

tphl                =  8.97588e-10 targ=  2.83394e-08 trig=  2.74418e-08
tplh                =  2.30332e-09 targ=  1.06629e-07 trig=  1.04325e-07
i_vdd_avg           =  -1.00027e-06 from=  1.00000e-08 to=  3.30005e-07
power_avg_uw        =  1.94072e+00


Total analysis time (seconds) = 0.857308

Total elapsed time (seconds) = 1.015 

Total DRAM available = 16384.000 MB.
DRAM currently available =  110.172 MB.
Maximum ngspice program size =   26.359 MB.
Current ngspice program size =   26.359 MB.

