
Note: Compatibility modes selected: hs a


Circuit: SKY130 library cell aoi21_4 A1_to_Y__A2=1,B1=0

option SCALE: Scale is set to 1e-06 for instance and model parameters
Doing analysis at TEMP = -35.098419 and TNOM = 27.000000

Using KLU as Direct Linear Solver
 Reference value :  1.00164e-08
 Reference value :  4.20718e-08
 Reference value :  7.42268e-08
 Reference value :  1.05911e-07
 Reference value :  1.38301e-07
 Reference value :  1.67856e-07
 Reference value :  1.99322e-07
 Reference value :  2.30217e-07
 Reference value :  2.60437e-07
 Reference value :  2.88511e-07
 Reference value :  3.19316e-07
No. of Data Rows : 68032

  Measurements for Transient Analysis

tphl                =  6.21755e-10 targ=  2.72739e-08 trig=  2.66522e-08
tplh                =  1.86817e-09 targ=  1.03825e-07 trig=  1.01957e-07
i_vdd_avg           =  -2.64066e-06 from=  1.00000e-08 to=  3.30001e-07
power_avg_uw        =  5.15892e+00


Total analysis time (seconds) = 2.83995

Total elapsed time (seconds) = 3.000 

Total DRAM available = 16384.000 MB.
DRAM currently available =  146.047 MB.
Maximum ngspice program size =   25.672 MB.
Current ngspice program size =   25.672 MB.

