
Note: Compatibility modes selected: hs a


Circuit: SKY130 library cell xor2_4 A_to_X__B=0

option SCALE: Scale is set to 1e-06 for instance and model parameters
Doing analysis at TEMP = 28.261641 and TNOM = 27.000000

Using KLU as Direct Linear Solver
 Reference value :  4.95640e-09
 Reference value :  2.31414e-08
 Reference value :  4.23661e-08
 Reference value :  6.15011e-08
 Reference value :  8.08061e-08
 Reference value :  1.02256e-07
 Reference value :  1.27200e-07
 Reference value :  1.52680e-07
 Reference value :  1.79205e-07
 Reference value :  2.06926e-07
 Reference value :  2.35721e-07
 Reference value :  2.64181e-07
 Reference value :  2.92215e-07
 Reference value :  3.21375e-07
No. of Data Rows : 68034

  Measurements for Transient Analysis

tplh                =  5.86820e-10 targ=  2.73086e-08 trig=  2.67218e-08
tphl                =  9.22064e-10 targ=  1.03087e-07 trig=  1.02165e-07
i_vdd_avg           =  -2.04612e-06 from=  1.00000e-08 to=  3.30005e-07
power_avg_uw        =  3.60414e+00


Total analysis time (seconds) = 3.49085

Total elapsed time (seconds) = 3.663 

Total DRAM available = 16384.000 MB.
DRAM currently available =  241.016 MB.
Maximum ngspice program size =   26.188 MB.
Current ngspice program size =   26.188 MB.

