
Note: Compatibility modes selected: hs a


Circuit: SKY130 library cell inv_1 A_to_Y

option SCALE: Scale is set to 1e-06 for instance and model parameters
Doing analysis at TEMP = -30.149851 and TNOM = 27.000000

Using KLU as Direct Linear Solver
 Reference value :  8.62065e-08
 Reference value :  3.19806e-07
No. of Data Rows : 68032

  Measurements for Transient Analysis

tphl                =  1.36418e-09 targ=  2.73362e-08 trig=  2.59720e-08
tplh                =  2.69954e-09 targ=  1.02616e-07 trig=  9.99160e-08
i_vdd_avg           =  -1.82890e-06 from=  1.00000e-08 to=  3.30001e-07
power_avg_uw        =  3.10712e+00


Total analysis time (seconds) = 0.368741

Total elapsed time (seconds) = 0.521 

Total DRAM available = 16384.000 MB.
DRAM currently available =  155.500 MB.
Maximum ngspice program size =   25.672 MB.
Current ngspice program size =   25.672 MB.

