
Note: Compatibility modes selected: hs a


Circuit: SKY130 library cell nor2_1 A_to_Y__B=0

option SCALE: Scale is set to 1e-06 for instance and model parameters
Doing analysis at TEMP = 124.753240 and TNOM = 27.000000

Using KLU as Direct Linear Solver
 Reference value :  6.29106e-08
 Reference value :  2.24956e-07
No. of Data Rows : 68034

  Measurements for Transient Analysis

tphl                =  3.97494e-10 targ=  2.87465e-08 trig=  2.83491e-08
tplh                =  1.30108e-09 targ=  1.08348e-07 trig=  1.07047e-07
i_vdd_avg           =  -2.77997e-07 from=  1.00000e-08 to=  3.30004e-07
power_avg_uw        =  4.60015e-01


Total analysis time (seconds) = 0.583782

Total elapsed time (seconds) = 0.720 

Total DRAM available = 16384.000 MB.
DRAM currently available =  164.922 MB.
Maximum ngspice program size =   26.219 MB.
Current ngspice program size =   26.219 MB.

