
Note: Compatibility modes selected: hs a


Circuit: SKY130 library cell aoi21_1 A1_to_Y__A2=1,B1=0

option SCALE: Scale is set to 1e-06 for instance and model parameters
Doing analysis at TEMP = 2.213798 and TNOM = 27.000000

Using KLU as Direct Linear Solver
 Reference value :  4.12727e-08
 Reference value :  1.65448e-07
 Reference value :  2.74378e-07
No. of Data Rows : 68032

  Measurements for Transient Analysis

tphl                =  1.14042e-09 targ=  2.60455e-08 trig=  2.49051e-08
tplh                =  2.86383e-09 targ=  9.95791e-08 trig=  9.67153e-08
i_vdd_avg           =  -2.39455e-06 from=  1.00000e-08 to=  3.30003e-07
power_avg_uw        =  4.59768e+00


Total analysis time (seconds) = 0.70861

Total elapsed time (seconds) = 0.883 

Total DRAM available = 16384.000 MB.
DRAM currently available =  141.953 MB.
Maximum ngspice program size =   26.875 MB.
Current ngspice program size =   26.875 MB.

