
Note: Compatibility modes selected: hs a


Circuit: SKY130 library cell inv_1 A_to_Y

option SCALE: Scale is set to 1e-06 for instance and model parameters
Doing analysis at TEMP = 111.295380 and TNOM = 27.000000

Using KLU as Direct Linear Solver
 Reference value :  1.07789e-07
No. of Data Rows : 68030

  Measurements for Transient Analysis

tphl                =  1.43817e-10 targ=  2.86248e-08 trig=  2.84810e-08
tplh                =  1.07853e-09 targ=  1.08521e-07 trig=  1.07443e-07
i_vdd_avg           =  -4.72859e-07 from=  1.00000e-08 to=  3.30001e-07
power_avg_uw        =  8.72590e-01


Total analysis time (seconds) = 0.350231

Total elapsed time (seconds) = 0.491 

Total DRAM available = 16384.000 MB.
DRAM currently available =  155.688 MB.
Maximum ngspice program size =   25.562 MB.
Current ngspice program size =   25.562 MB.

