
Note: Compatibility modes selected: hs a


Circuit: SKY130 library cell inv_4 A_to_Y

option SCALE: Scale is set to 1e-06 for instance and model parameters
Doing analysis at TEMP = 110.689630 and TNOM = 27.000000

Using KLU as Direct Linear Solver
 Reference value :  2.61025e-08
 Reference value :  1.15581e-07
 Reference value :  2.00649e-07
 Reference value :  2.82251e-07
No. of Data Rows : 68030

  Measurements for Transient Analysis

tphl                =  4.03979e-10 targ=  2.88199e-08 trig=  2.84159e-08
tplh                =  1.40105e-09 targ=  1.08649e-07 trig=  1.07248e-07
i_vdd_avg           =  -2.65162e-06 from=  1.00000e-08 to=  3.30001e-07
power_avg_uw        =  4.96077e+00


Total analysis time (seconds) = 1.02232

Total elapsed time (seconds) = 1.185 

Total DRAM available = 16384.000 MB.
DRAM currently available =  104.281 MB.
Maximum ngspice program size =   27.109 MB.
Current ngspice program size =   27.109 MB.

