
Note: Compatibility modes selected: hs a


Circuit: SKY130 library cell aoi21_1 A1_to_Y__A2=1,B1=0

option SCALE: Scale is set to 1e-06 for instance and model parameters
Doing analysis at TEMP = 16.358431 and TNOM = 27.000000

Using KLU as Direct Linear Solver
 Reference value :  3.79588e-08
 Reference value :  1.48790e-07
 Reference value :  2.50294e-07
No. of Data Rows : 68030

  Measurements for Transient Analysis

tphl                =  1.85124e-09 targ=  3.03119e-08 trig=  2.84607e-08
tplh                =  4.02098e-09 targ=  1.11403e-07 trig=  1.07382e-07
i_vdd_avg           =  -1.94232e-06 from=  1.00000e-08 to=  3.30000e-07
power_avg_uw        =  3.68185e+00


Total analysis time (seconds) = 0.821415

Total elapsed time (seconds) = 1.009 

Total DRAM available = 16384.000 MB.
DRAM currently available =  148.797 MB.
Maximum ngspice program size =   25.578 MB.
Current ngspice program size =   25.578 MB.

