
Note: Compatibility modes selected: hs a


Circuit: SKY130 library cell mux2_1 A0_to_X__A1=0,S=0

option SCALE: Scale is set to 1e-06 for instance and model parameters
Doing analysis at TEMP = -21.302984 and TNOM = 27.000000

Using KLU as Direct Linear Solver
 Reference value :  2.12714e-08
 Reference value :  7.06110e-08
 Reference value :  1.25320e-07
 Reference value :  1.79425e-07
 Reference value :  2.33461e-07
 Reference value :  2.89245e-07
No. of Data Rows : 68034

  Measurements for Transient Analysis

tplh                =  1.73262e-09 targ=  2.70519e-08 trig=  2.53193e-08
tphl                =  1.34995e-09 targ=  9.93077e-08 trig=  9.79578e-08
i_vdd_avg           =  -2.30784e-06 from=  1.00000e-08 to=  3.30005e-07
power_avg_uw        =  4.07983e+00


Total analysis time (seconds) = 1.60172

Total elapsed time (seconds) = 1.750 

Total DRAM available = 16384.000 MB.
DRAM currently available =  122.000 MB.
Maximum ngspice program size =   24.609 MB.
Current ngspice program size =   24.609 MB.

