
Note: Compatibility modes selected: hs a


Circuit: SKY130 library cell inv_1 A_to_Y

option SCALE: Scale is set to 1e-06 for instance and model parameters
Doing analysis at TEMP = 85.649057 and TNOM = 27.000000

Using KLU as Direct Linear Solver
 Reference value :  9.22882e-08
 Reference value :  3.26409e-07
No. of Data Rows : 68032

  Measurements for Transient Analysis

tphl                =  8.65756e-10 targ=  2.88061e-08 trig=  2.79404e-08
tplh                =  1.96797e-09 targ=  1.07789e-07 trig=  1.05821e-07
i_vdd_avg           =  -7.26694e-07 from=  1.00000e-08 to=  3.30004e-07
power_avg_uw        =  1.27394e+00


Total analysis time (seconds) = 0.369532

Total elapsed time (seconds) = 0.535 

Total DRAM available = 16384.000 MB.
DRAM currently available =  153.531 MB.
Maximum ngspice program size =   23.969 MB.
Current ngspice program size =   23.969 MB.

