
Note: Compatibility modes selected: hs a


Circuit: SKY130 library cell aoi21_1 A1_to_Y__A2=1,B1=0

option SCALE: Scale is set to 1e-06 for instance and model parameters
Doing analysis at TEMP = -34.380099 and TNOM = 27.000000

Using KLU as Direct Linear Solver
 Reference value :  3.95243e-08
 Reference value :  1.47196e-07
 Reference value :  2.61339e-07
No. of Data Rows : 68030

  Measurements for Transient Analysis

tphl                =  1.25824e-09 targ=  3.07067e-08 trig=  2.94484e-08
tplh                =  4.52740e-09 targ=  1.14873e-07 trig=  1.10345e-07
i_vdd_avg           =  -2.53907e-06 from=  1.00000e-08 to=  3.30001e-07
power_avg_uw        =  4.82943e+00


Total analysis time (seconds) = 0.768718

Total elapsed time (seconds) = 0.946 

Total DRAM available = 16384.000 MB.
DRAM currently available =  122.750 MB.
Maximum ngspice program size =   28.453 MB.
Current ngspice program size =   28.453 MB.

