
Note: Compatibility modes selected: hs a


Circuit: SKY130 library cell xor2_1 A_to_X__B=0

option SCALE: Scale is set to 1e-06 for instance and model parameters
Doing analysis at TEMP = 13.915903 and TNOM = 27.000000

Using KLU as Direct Linear Solver
 Reference value :  2.49375e-08
 Reference value :  9.46338e-08
 Reference value :  1.55995e-07
 Reference value :  2.24274e-07
 Reference value :  2.92820e-07
No. of Data Rows : 68030

  Measurements for Transient Analysis

tplh                =  5.71933e-10 targ=  2.59026e-08 trig=  2.53307e-08
tphl                =  5.94119e-10 targ=  9.85861e-08 trig=  9.79920e-08
i_vdd_avg           =  -6.37317e-07 from=  1.00000e-08 to=  3.30000e-07
power_avg_uw        =  1.08479e+00


Total analysis time (seconds) = 1.26973

Total elapsed time (seconds) = 1.425 

Total DRAM available = 16384.000 MB.
DRAM currently available =  144.703 MB.
Maximum ngspice program size =   25.391 MB.
Current ngspice program size =   25.391 MB.

