
Note: Compatibility modes selected: hs a


Circuit: SKY130 library cell xor2_4 A_to_X__B=0

option SCALE: Scale is set to 1e-06 for instance and model parameters
Doing analysis at TEMP = 48.133824 and TNOM = 27.000000

Using KLU as Direct Linear Solver
 Reference value :  5.05140e-09
 Reference value :  2.26314e-08
 Reference value :  4.39566e-08
 Reference value :  6.49166e-08
 Reference value :  8.65016e-08
 Reference value :  1.10377e-07
 Reference value :  1.37206e-07
 Reference value :  1.64936e-07
 Reference value :  1.92218e-07
 Reference value :  2.21157e-07
 Reference value :  2.50312e-07
 Reference value :  2.79391e-07
 Reference value :  3.08781e-07
 Reference value :  3.38211e-07
No. of Data Rows : 68032

  Measurements for Transient Analysis

tplh                =  -6.90526e-11 targ=  2.86730e-08 trig=  2.87420e-08
tphl                =  1.19691e-09 targ=  1.09423e-07 trig=  1.08226e-07
i_vdd_avg           =  -3.29077e-06 from=  1.00000e-08 to=  3.30001e-07
power_avg_uw        =  5.78288e+00


Total analysis time (seconds) = 3.34638

Total elapsed time (seconds) = 3.514 

Total DRAM available = 16384.000 MB.
DRAM currently available =  256.812 MB.
Maximum ngspice program size =   29.312 MB.
Current ngspice program size =   29.312 MB.

