Note: Starting dynamic gmin stepping
Note: Dynamic gmin stepping completed

Note: Compatibility modes selected: hs a


Circuit: SKY130 library cell mux2_1 A0_to_X__A1=0,S=0

option SCALE: Scale is set to 1e-06 for instance and model parameters
Doing analysis at TEMP = -31.899013 and TNOM = 27.000000

Using KLU as Direct Linear Solver
 Reference value :  1.56414e-08
 Reference value :  7.79125e-08
 Reference value :  1.30943e-07
 Reference value :  1.86623e-07
 Reference value :  2.34263e-07
 Reference value :  2.93988e-07
No. of Data Rows : 68032

  Measurements for Transient Analysis

tplh                =  1.21718e-09 targ=  2.77947e-08 trig=  2.65775e-08
tphl                =  1.40643e-09 targ=  1.03139e-07 trig=  1.01733e-07
i_vdd_avg           =  -2.06424e-06 from=  1.00000e-08 to=  3.30003e-07
power_avg_uw        =  3.48741e+00


Total analysis time (seconds) = 1.55231

Total elapsed time (seconds) = 1.707 

Total DRAM available = 16384.000 MB.
DRAM currently available =  144.625 MB.
Maximum ngspice program size =   27.797 MB.
Current ngspice program size =   27.797 MB.

