
Note: Compatibility modes selected: hs a


Circuit: SKY130 library cell inv_4 A_to_Y

option SCALE: Scale is set to 1e-06 for instance and model parameters
Doing analysis at TEMP = 44.151766 and TNOM = 27.000000

Using KLU as Direct Linear Solver
 Reference value :  2.35264e-08
 Reference value :  1.14945e-07
 Reference value :  1.96846e-07
 Reference value :  2.79030e-07
No. of Data Rows : 68032

  Measurements for Transient Analysis

tphl                =  6.45506e-11 targ=  2.56740e-08 trig=  2.56095e-08
tplh                =  6.63122e-10 targ=  9.94915e-08 trig=  9.88284e-08
i_vdd_avg           =  -1.75213e-06 from=  1.00000e-08 to=  3.30000e-07
power_avg_uw        =  3.31143e+00


Total analysis time (seconds) = 1.03119

Total elapsed time (seconds) = 1.187 

Total DRAM available = 16384.000 MB.
DRAM currently available =  136.781 MB.
Maximum ngspice program size =   27.391 MB.
Current ngspice program size =   27.391 MB.

