
Note: Compatibility modes selected: hs a


Circuit: SKY130 library cell nor2_4 A_to_Y__B=0

option SCALE: Scale is set to 1e-06 for instance and model parameters
Doing analysis at TEMP = 19.587739 and TNOM = 27.000000

Using KLU as Direct Linear Solver
 Reference value :  1.48414e-08
 Reference value :  5.79546e-08
 Reference value :  1.03675e-07
 Reference value :  1.46992e-07
 Reference value :  1.93215e-07
 Reference value :  2.35610e-07
 Reference value :  2.78177e-07
 Reference value :  3.20897e-07
No. of Data Rows : 68030

  Measurements for Transient Analysis

tphl                =  3.85421e-11 targ=  2.73171e-08 trig=  2.72785e-08
tplh                =  1.55558e-09 targ=  1.05391e-07 trig=  1.03836e-07
i_vdd_avg           =  -3.42794e-06 from=  1.00000e-08 to=  3.30002e-07
power_avg_uw        =  6.72852e+00


Total analysis time (seconds) = 1.98965

Total elapsed time (seconds) = 2.148 

Total DRAM available = 16384.000 MB.
DRAM currently available =  144.703 MB.
Maximum ngspice program size =   25.344 MB.
Current ngspice program size =   25.344 MB.

