
Note: Compatibility modes selected: hs a


Circuit: SKY130 library cell aoi21_4 A1_to_Y__A2=1,B1=0

option SCALE: Scale is set to 1e-06 for instance and model parameters
Doing analysis at TEMP = 19.936937 and TNOM = 27.000000

Using KLU as Direct Linear Solver
 Reference value :  9.19140e-09
 Reference value :  4.05380e-08
 Reference value :  6.80530e-08
 Reference value :  1.00168e-07
 Reference value :  1.29229e-07
 Reference value :  1.59544e-07
 Reference value :  1.90913e-07
 Reference value :  2.20228e-07
 Reference value :  2.49483e-07
 Reference value :  2.79419e-07
 Reference value :  3.08874e-07
No. of Data Rows : 68032

  Measurements for Transient Analysis

tphl                =  2.63213e-10 targ=  2.88035e-08 trig=  2.85403e-08
tplh                =  2.12216e-09 targ=  1.09743e-07 trig=  1.07621e-07
i_vdd_avg           =  -2.51315e-06 from=  1.00000e-08 to=  3.30004e-07
power_avg_uw        =  4.41671e+00


Total analysis time (seconds) = 2.87375

Total elapsed time (seconds) = 3.031 

Total DRAM available = 16384.000 MB.
DRAM currently available =  124.484 MB.
Maximum ngspice program size =   28.750 MB.
Current ngspice program size =   28.750 MB.

