
Note: Compatibility modes selected: hs a


Circuit: SKY130 library cell xor2_1 A_to_X__B=0

option SCALE: Scale is set to 1e-06 for instance and model parameters
Doing analysis at TEMP = 43.199101 and TNOM = 27.000000

Using KLU as Direct Linear Solver
 Reference value :  2.16564e-08
 Reference value :  9.48636e-08
 Reference value :  1.67645e-07
 Reference value :  2.37924e-07
 Reference value :  3.14435e-07
No. of Data Rows : 68032

  Measurements for Transient Analysis

tplh                =  6.11946e-10 targ=  2.69100e-08 trig=  2.62980e-08
tphl                =  8.16412e-10 targ=  1.01711e-07 trig=  1.00894e-07
i_vdd_avg           =  -9.81745e-07 from=  1.00000e-08 to=  3.30005e-07
power_avg_uw        =  1.71088e+00


Total analysis time (seconds) = 1.17135

Total elapsed time (seconds) = 1.332 

Total DRAM available = 16384.000 MB.
DRAM currently available =  182.344 MB.
Maximum ngspice program size =   27.906 MB.
Current ngspice program size =   27.906 MB.

