
Note: Compatibility modes selected: hs a


Circuit: SKY130 library cell inv_1 A_to_Y

option SCALE: Scale is set to 1e-06 for instance and model parameters
Doing analysis at TEMP = 0.009655 and TNOM = 27.000000

Using KLU as Direct Linear Solver
 Reference value :  9.04033e-08
 Reference value :  3.36379e-07
No. of Data Rows : 68032

  Measurements for Transient Analysis

tphl                =  1.43237e-10 targ=  2.86512e-08 trig=  2.85079e-08
tplh                =  2.05032e-09 targ=  1.09574e-07 trig=  1.07524e-07
i_vdd_avg           =  -1.34861e-06 from=  1.00000e-08 to=  3.30004e-07
power_avg_uw        =  2.65063e+00


Total analysis time (seconds) = 0.356851

Total elapsed time (seconds) = 0.501 

Total DRAM available = 16384.000 MB.
DRAM currently available =  151.547 MB.
Maximum ngspice program size =   25.922 MB.
Current ngspice program size =   25.922 MB.

