
Note: Compatibility modes selected: hs a


Circuit: SKY130 library cell xor2_4 A_to_X__B=0

option SCALE: Scale is set to 1e-06 for instance and model parameters
Doing analysis at TEMP = -21.003144 and TNOM = 27.000000

Using KLU as Direct Linear Solver
 Reference value :  3.58140e-09
 Reference value :  2.13214e-08
 Reference value :  3.96455e-08
 Reference value :  5.87055e-08
 Reference value :  7.50905e-08
 Reference value :  9.34405e-08
 Reference value :  1.10028e-07
 Reference value :  1.27193e-07
 Reference value :  1.44503e-07
 Reference value :  1.62898e-07
 Reference value :  1.79933e-07
 Reference value :  1.96940e-07
 Reference value :  2.15070e-07
 Reference value :  2.32130e-07
 Reference value :  2.49385e-07
 Reference value :  2.67888e-07
 Reference value :  2.86623e-07
 Reference value :  3.05263e-07
 Reference value :  3.26363e-07
No. of Data Rows : 68034

  Measurements for Transient Analysis

tplh                =  -1.99634e-10 targ=  2.66944e-08 trig=  2.68940e-08
tphl                =  8.25330e-10 targ=  1.03507e-07 trig=  1.02682e-07
i_vdd_avg           =  -2.10782e-06 from=  1.00000e-08 to=  3.30003e-07
power_avg_uw        =  4.12896e+00


Total analysis time (seconds) = 4.79238

Total elapsed time (seconds) = 4.976 

Total DRAM available = 16384.000 MB.
DRAM currently available =  154.438 MB.
Maximum ngspice program size =   29.250 MB.
Current ngspice program size =   29.250 MB.

