
Note: Compatibility modes selected: hs a


Circuit: SKY130 library cell oai21_4 A1_to_Y__A2=0,B1=1

option SCALE: Scale is set to 1e-06 for instance and model parameters
Doing analysis at TEMP = 123.528580 and TNOM = 27.000000

Using KLU as Direct Linear Solver
 Reference value :  1.09114e-08
 Reference value :  4.23299e-08
 Reference value :  7.35249e-08
 Reference value :  1.04110e-07
 Reference value :  1.36812e-07
 Reference value :  1.68712e-07
 Reference value :  1.99730e-07
 Reference value :  2.33015e-07
 Reference value :  2.61620e-07
 Reference value :  2.91727e-07
 Reference value :  3.23132e-07
No. of Data Rows : 68030

  Measurements for Transient Analysis

tphl                =  3.31722e-10 targ=  3.02004e-08 trig=  2.98687e-08
tplh                =  2.00090e-09 targ=  1.13607e-07 trig=  1.11606e-07
i_vdd_avg           =  -4.60023e-06 from=  1.00000e-08 to=  3.30002e-07
power_avg_uw        =  8.17627e+00


Total analysis time (seconds) = 2.76128

Total elapsed time (seconds) = 2.908 

Total DRAM available = 16384.000 MB.
DRAM currently available =  147.875 MB.
Maximum ngspice program size =   25.844 MB.
Current ngspice program size =   25.844 MB.

