
Note: Compatibility modes selected: hs a


Circuit: SKY130 library cell inv_4 A_to_Y

option SCALE: Scale is set to 1e-06 for instance and model parameters
Doing analysis at TEMP = 16.091779 and TNOM = 27.000000

Using KLU as Direct Linear Solver
 Reference value :  2.48675e-08
 Reference value :  1.06280e-07
 Reference value :  1.86293e-07
 Reference value :  2.71750e-07
No. of Data Rows : 68032

  Measurements for Transient Analysis

tphl                =  1.56283e-10 targ=  2.69157e-08 trig=  2.67594e-08
tplh                =  1.26691e-09 targ=  1.03545e-07 trig=  1.02278e-07
i_vdd_avg           =  -2.26558e-06 from=  1.00000e-08 to=  3.30000e-07
power_avg_uw        =  4.06378e+00


Total analysis time (seconds) = 1.06584

Total elapsed time (seconds) = 1.220 

Total DRAM available = 16384.000 MB.
DRAM currently available =  140.516 MB.
Maximum ngspice program size =   26.859 MB.
Current ngspice program size =   26.859 MB.

