
Note: Compatibility modes selected: hs a


Circuit: SKY130 library cell mux2_4 A0_to_X__A1=0,S=0

option SCALE: Scale is set to 1e-06 for instance and model parameters
Doing analysis at TEMP = 70.235762 and TNOM = 27.000000

Using KLU as Direct Linear Solver
 Reference value :  1.21014e-08
 Reference value :  5.28467e-08
 Reference value :  9.01517e-08
 Reference value :  1.30261e-07
 Reference value :  1.70016e-07
 Reference value :  2.07072e-07
 Reference value :  2.44477e-07
 Reference value :  2.83131e-07
 Reference value :  3.23971e-07
No. of Data Rows : 68032

  Measurements for Transient Analysis

tplh                =  2.75732e-10 targ=  2.59728e-08 trig=  2.56971e-08
tphl                =  7.58933e-10 targ=  9.98502e-08 trig=  9.90912e-08
i_vdd_avg           =  -1.03905e-06 from=  1.00000e-08 to=  3.30001e-07
power_avg_uw        =  1.73666e+00


Total analysis time (seconds) = 2.22595

Total elapsed time (seconds) = 2.386 

Total DRAM available = 16384.000 MB.
DRAM currently available =  128.000 MB.
Maximum ngspice program size =   26.344 MB.
Current ngspice program size =   26.344 MB.

