
Note: Compatibility modes selected: hs a


Circuit: SKY130 library cell mux2_4 A0_to_X__A1=0,S=0

option SCALE: Scale is set to 1e-06 for instance and model parameters
Doing analysis at TEMP = 17.142331 and TNOM = 27.000000

Using KLU as Direct Linear Solver
 Reference value :  1.24414e-08
 Reference value :  5.14688e-08
 Reference value :  8.98688e-08
 Reference value :  1.26745e-07
 Reference value :  1.63390e-07
 Reference value :  2.00264e-07
 Reference value :  2.38069e-07
 Reference value :  2.73330e-07
 Reference value :  3.09835e-07
No. of Data Rows : 68030

  Measurements for Transient Analysis

tplh                =  5.25133e-11 targ=  2.76232e-08 trig=  2.75707e-08
tphl                =  1.21744e-09 targ=  1.05929e-07 trig=  1.04712e-07
i_vdd_avg           =  -9.16272e-07 from=  1.00000e-08 to=  3.30000e-07
power_avg_uw        =  1.57120e+00


Total analysis time (seconds) = 2.30588

Total elapsed time (seconds) = 2.455 

Total DRAM available = 16384.000 MB.
DRAM currently available =  124.484 MB.
Maximum ngspice program size =   25.938 MB.
Current ngspice program size =   25.938 MB.

