
Note: Compatibility modes selected: hs a


Circuit: SKY130 library cell aoi21_4 A1_to_Y__A2=1,B1=0

option SCALE: Scale is set to 1e-06 for instance and model parameters
Doing analysis at TEMP = -21.772463 and TNOM = 27.000000

Using KLU as Direct Linear Solver
 Reference value :  9.26640e-09
 Reference value :  4.06508e-08
 Reference value :  6.90958e-08
 Reference value :  1.01516e-07
 Reference value :  1.29624e-07
 Reference value :  1.59999e-07
 Reference value :  1.91451e-07
 Reference value :  2.21196e-07
 Reference value :  2.52256e-07
 Reference value :  2.80169e-07
 Reference value :  3.11389e-07
 Reference value :  3.38279e-07
No. of Data Rows : 68034

  Measurements for Transient Analysis

tphl                =  3.09174e-10 targ=  2.78283e-08 trig=  2.75191e-08
tplh                =  2.03425e-09 targ=  1.06592e-07 trig=  1.04557e-07
i_vdd_avg           =  -1.36311e-06 from=  1.00000e-08 to=  3.30004e-07
power_avg_uw        =  2.23946e+00


Total analysis time (seconds) = 2.88015

Total elapsed time (seconds) = 3.038 

Total DRAM available = 16384.000 MB.
DRAM currently available =  144.625 MB.
Maximum ngspice program size =   25.359 MB.
Current ngspice program size =   25.359 MB.

