
Note: Compatibility modes selected: hs a


Circuit: SKY130 library cell oai21_1 A1_to_Y__A2=0,B1=1

option SCALE: Scale is set to 1e-06 for instance and model parameters
Doing analysis at TEMP = 70.235755 and TNOM = 27.000000

Using KLU as Direct Linear Solver
 Reference value :  4.38817e-08
 Reference value :  1.61231e-07
 Reference value :  2.67622e-07
No. of Data Rows : 68032

  Measurements for Transient Analysis

tphl                =  -9.75025e-11 targ=  2.97021e-08 trig=  2.97996e-08
tplh                =  1.67519e-09 targ=  1.13074e-07 trig=  1.11399e-07
i_vdd_avg           =  -4.16165e-07 from=  1.00000e-08 to=  3.30001e-07
power_avg_uw        =  6.90246e-01


Total analysis time (seconds) = 0.761474

Total elapsed time (seconds) = 0.912 

Total DRAM available = 16384.000 MB.
DRAM currently available =  189.250 MB.
Maximum ngspice program size =   25.438 MB.
Current ngspice program size =   25.438 MB.

