
Note: Compatibility modes selected: hs a


Circuit: SKY130 library cell xor2_4 A_to_X__B=0

option SCALE: Scale is set to 1e-06 for instance and model parameters
Doing analysis at TEMP = 91.668724 and TNOM = 27.000000

Using KLU as Direct Linear Solver
 Reference value :  3.48140e-09
 Reference value :  2.13914e-08
 Reference value :  4.02825e-08
 Reference value :  5.80025e-08
 Reference value :  7.62175e-08
 Reference value :  9.43525e-08
 Reference value :  1.11867e-07
 Reference value :  1.30787e-07
 Reference value :  1.48502e-07
 Reference value :  1.66137e-07
 Reference value :  1.83697e-07
 Reference value :  2.01552e-07
 Reference value :  2.20707e-07
 Reference value :  2.37537e-07
 Reference value :  2.55577e-07
 Reference value :  2.73517e-07
 Reference value :  2.92162e-07
 Reference value :  3.10432e-07
 Reference value :  3.27737e-07
No. of Data Rows : 68032

  Measurements for Transient Analysis

tplh                =  -1.86353e-10 targ=  2.78061e-08 trig=  2.79925e-08
tphl                =  8.30364e-10 targ=  1.06808e-07 trig=  1.05977e-07
i_vdd_avg           =  -1.69368e-06 from=  1.00000e-08 to=  3.30002e-07
power_avg_uw        =  2.82567e+00


Total analysis time (seconds) = 4.78717

Total elapsed time (seconds) = 4.970 

Total DRAM available = 16384.000 MB.
DRAM currently available =  144.703 MB.
Maximum ngspice program size =   27.469 MB.
Current ngspice program size =   27.469 MB.

