
Note: Compatibility modes selected: hs a


Circuit: SKY130 library cell mux2_1 A0_to_X__A1=0,S=0

option SCALE: Scale is set to 1e-06 for instance and model parameters
Doing analysis at TEMP = 78.110974 and TNOM = 27.000000

Using KLU as Direct Linear Solver
 Reference value :  1.89414e-08
 Reference value :  7.22729e-08
 Reference value :  1.24488e-07
 Reference value :  1.82153e-07
 Reference value :  2.41228e-07
 Reference value :  3.04113e-07
No. of Data Rows : 68032

  Measurements for Transient Analysis

tplh                =  -2.21992e-10 targ=  2.81907e-08 trig=  2.84127e-08
tphl                =  1.12586e-09 targ=  1.08364e-07 trig=  1.07238e-07
i_vdd_avg           =  -4.92704e-07 from=  1.00000e-08 to=  3.30003e-07
power_avg_uw        =  9.03389e-01


Total analysis time (seconds) = 1.5123

Total elapsed time (seconds) = 1.670 

Total DRAM available = 16384.000 MB.
DRAM currently available =  134.219 MB.
Maximum ngspice program size =   27.141 MB.
Current ngspice program size =   27.141 MB.

