
Note: Compatibility modes selected: hs a


Circuit: SKY130 library cell nand2_1 A_to_Y__B=1

option SCALE: Scale is set to 1e-06 for instance and model parameters
Doing analysis at TEMP = 116.804690 and TNOM = 27.000000

Using KLU as Direct Linear Solver
 Reference value :  5.50340e-08
 Reference value :  2.01404e-07
No. of Data Rows : 68030

  Measurements for Transient Analysis

tphl                =  8.28885e-10 targ=  2.72621e-08 trig=  2.64333e-08
tplh                =  1.38752e-09 targ=  1.02687e-07 trig=  1.01300e-07
i_vdd_avg           =  -1.42993e-06 from=  1.00000e-08 to=  3.30001e-07
power_avg_uw        =  2.66578e+00


Total analysis time (seconds) = 0.573206

Total elapsed time (seconds) = 0.726 

Total DRAM available = 16384.000 MB.
DRAM currently available =  132.281 MB.
Maximum ngspice program size =   24.859 MB.
Current ngspice program size =   24.859 MB.

