
Note: Compatibility modes selected: hs a


Circuit: SKY130 library cell nand3_1 A_to_Y__B=1,C=1

option SCALE: Scale is set to 1e-06 for instance and model parameters
Doing analysis at TEMP = 75.488794 and TNOM = 27.000000

Using KLU as Direct Linear Solver
 Reference value :  4.25512e-08
 Reference value :  1.58070e-07
 Reference value :  2.66456e-07
No. of Data Rows : 68034

  Measurements for Transient Analysis

tphl                =  1.10800e-09 targ=  3.07549e-08 trig=  2.96469e-08
tplh                =  2.36718e-09 targ=  1.13308e-07 trig=  1.10941e-07
i_vdd_avg           =  -1.78421e-06 from=  1.00000e-08 to=  3.30005e-07
power_avg_uw        =  3.34370e+00


Total analysis time (seconds) = 0.758926

Total elapsed time (seconds) = 0.896 

Total DRAM available = 16384.000 MB.
DRAM currently available =  170.750 MB.
Maximum ngspice program size =   27.172 MB.
Current ngspice program size =   27.172 MB.

