
Note: Compatibility modes selected: hs a


Circuit: SKY130 library cell oai21_4 A1_to_Y__A2=0,B1=1

option SCALE: Scale is set to 1e-06 for instance and model parameters
Doing analysis at TEMP = 5.803057 and TNOM = 27.000000

Using KLU as Direct Linear Solver
 Reference value :  8.88140e-09
 Reference value :  3.84791e-08
 Reference value :  6.74741e-08
 Reference value :  9.79191e-08
 Reference value :  1.28471e-07
 Reference value :  1.58366e-07
 Reference value :  1.85873e-07
 Reference value :  2.14909e-07
 Reference value :  2.45004e-07
 Reference value :  2.75811e-07
 Reference value :  3.04296e-07
 Reference value :  3.33431e-07
No. of Data Rows : 68030

  Measurements for Transient Analysis

tphl                =  2.28246e-11 targ=  2.67086e-08 trig=  2.66858e-08
tplh                =  1.08211e-09 targ=  1.03139e-07 trig=  1.02057e-07
i_vdd_avg           =  -6.30289e-07 from=  1.00000e-08 to=  3.30001e-07
power_avg_uw        =  1.04727e+00


Total analysis time (seconds) = 2.91456

Total elapsed time (seconds) = 3.076 

Total DRAM available = 16384.000 MB.
DRAM currently available =  147.297 MB.
Maximum ngspice program size =   25.219 MB.
Current ngspice program size =   25.219 MB.

