
Note: Compatibility modes selected: hs a


Circuit: SKY130 library cell mux2_4 A0_to_X__A1=0,S=0

option SCALE: Scale is set to 1e-06 for instance and model parameters
Doing analysis at TEMP = -4.577168 and TNOM = 27.000000

Using KLU as Direct Linear Solver
 Reference value :  1.27964e-08
 Reference value :  5.19314e-08
 Reference value :  9.12364e-08
 Reference value :  1.27920e-07
 Reference value :  1.68705e-07
 Reference value :  2.10001e-07
 Reference value :  2.49011e-07
 Reference value :  2.85960e-07
 Reference value :  3.23830e-07
No. of Data Rows : 68032

  Measurements for Transient Analysis

tplh                =  2.89741e-10 targ=  2.48842e-08 trig=  2.45944e-08
tphl                =  4.91326e-10 targ=  9.62746e-08 trig=  9.57833e-08
i_vdd_avg           =  -1.66038e-06 from=  1.00000e-08 to=  3.30000e-07
power_avg_uw        =  3.04865e+00


Total analysis time (seconds) = 2.21533

Total elapsed time (seconds) = 2.380 

Total DRAM available = 16384.000 MB.
DRAM currently available =  117.203 MB.
Maximum ngspice program size =   28.812 MB.
Current ngspice program size =   28.812 MB.

