
Note: Compatibility modes selected: hs a


Circuit: SKY130 library cell inv_1 A_to_Y

option SCALE: Scale is set to 1e-06 for instance and model parameters
Doing analysis at TEMP = -17.806175 and TNOM = 27.000000

Using KLU as Direct Linear Solver
 Reference value :  6.58437e-08
 Reference value :  3.28530e-07
No. of Data Rows : 68032

  Measurements for Transient Analysis

tphl                =  9.22137e-10 targ=  2.80377e-08 trig=  2.71156e-08
tplh                =  2.59479e-09 targ=  1.05942e-07 trig=  1.03347e-07
i_vdd_avg           =  -2.21863e-06 from=  1.00000e-08 to=  3.30005e-07
power_avg_uw        =  4.14671e+00


Total analysis time (seconds) = 0.34341

Total elapsed time (seconds) = 0.509 

Total DRAM available = 16384.000 MB.
DRAM currently available =  144.703 MB.
Maximum ngspice program size =   27.000 MB.
Current ngspice program size =   27.000 MB.

