Note: Starting dynamic gmin stepping
Note: Dynamic gmin stepping completed

Note: Compatibility modes selected: hs a


Circuit: SKY130 library cell mux2_1 A0_to_X__A1=0,S=0

option SCALE: Scale is set to 1e-06 for instance and model parameters
Doing analysis at TEMP = 39.189540 and TNOM = 27.000000

Using KLU as Direct Linear Solver
 Reference value :  1.82814e-08
 Reference value :  7.06332e-08
 Reference value :  1.29099e-07
 Reference value :  1.81264e-07
 Reference value :  2.40178e-07
 Reference value :  2.89604e-07
 Reference value :  3.38294e-07
No. of Data Rows : 68032

  Measurements for Transient Analysis

tplh                =  2.45006e-10 targ=  2.81503e-08 trig=  2.79053e-08
tphl                =  1.29965e-09 targ=  1.07016e-07 trig=  1.05716e-07
i_vdd_avg           =  -1.04696e-06 from=  1.00000e-08 to=  3.30004e-07
power_avg_uw        =  1.84673e+00


Total analysis time (seconds) = 1.60735

Total elapsed time (seconds) = 1.764 

Total DRAM available = 16384.000 MB.
DRAM currently available =  129.688 MB.
Maximum ngspice program size =   27.234 MB.
Current ngspice program size =   27.234 MB.

