
Note: Compatibility modes selected: hs a


Circuit: SKY130 library cell aoi21_4 A1_to_Y__A2=1,B1=0

option SCALE: Scale is set to 1e-06 for instance and model parameters
Doing analysis at TEMP = -10.858860 and TNOM = 27.000000

Using KLU as Direct Linear Solver
 Reference value :  1.56914e-08
 Reference value :  4.84802e-08
 Reference value :  7.86052e-08
 Reference value :  1.09363e-07
 Reference value :  1.41573e-07
 Reference value :  1.76178e-07
 Reference value :  2.08520e-07
 Reference value :  2.36920e-07
 Reference value :  2.66758e-07
 Reference value :  2.98268e-07
 Reference value :  3.29073e-07
No. of Data Rows : 68034

  Measurements for Transient Analysis

tphl                =  2.61585e-10 targ=  2.61029e-08 trig=  2.58414e-08
tplh                =  1.17849e-09 targ=  1.00703e-07 trig=  9.95241e-08
i_vdd_avg           =  -1.93740e-06 from=  1.00000e-08 to=  3.30003e-07
power_avg_uw        =  3.55606e+00


Total analysis time (seconds) = 2.72949

Total elapsed time (seconds) = 2.874 

Total DRAM available = 16384.000 MB.
DRAM currently available =  170.750 MB.
Maximum ngspice program size =   26.703 MB.
Current ngspice program size =   26.703 MB.

