
Note: Compatibility modes selected: hs a


Circuit: SKY130 library cell inv_1 A_to_Y

option SCALE: Scale is set to 1e-06 for instance and model parameters
Doing analysis at TEMP = 36.651947 and TNOM = 27.000000

Using KLU as Direct Linear Solver
 Reference value :  1.09257e-07
No. of Data Rows : 68032

  Measurements for Transient Analysis

tphl                =  6.39161e-10 targ=  2.52714e-08 trig=  2.46323e-08
tplh                =  1.22054e-09 targ=  9.71173e-08 trig=  9.58968e-08
i_vdd_avg           =  -1.77054e-06 from=  1.00000e-08 to=  3.30002e-07
power_avg_uw        =  3.05400e+00


Total analysis time (seconds) = 0.338491

Total elapsed time (seconds) = 0.474 

Total DRAM available = 16384.000 MB.
DRAM currently available =  160.141 MB.
Maximum ngspice program size =   25.219 MB.
Current ngspice program size =   25.219 MB.

