
Note: Compatibility modes selected: hs a


Circuit: SKY130 library cell nor2_4 A_to_Y__B=0

option SCALE: Scale is set to 1e-06 for instance and model parameters
Doing analysis at TEMP = 4.987688 and TNOM = 27.000000

Using KLU as Direct Linear Solver
 Reference value :  1.51114e-08
 Reference value :  5.94160e-08
 Reference value :  1.04536e-07
 Reference value :  1.48975e-07
 Reference value :  1.91643e-07
 Reference value :  2.34581e-07
 Reference value :  2.78250e-07
 Reference value :  3.17290e-07
No. of Data Rows : 68034

  Measurements for Transient Analysis

tphl                =  -6.06563e-10 targ=  2.75827e-08 trig=  2.81893e-08
tplh                =  1.02534e-09 targ=  1.07593e-07 trig=  1.06568e-07
i_vdd_avg           =  -1.23867e-06 from=  1.00000e-08 to=  3.30005e-07
power_avg_uw        =  2.30071e+00


Total analysis time (seconds) = 1.97937

Total elapsed time (seconds) = 2.137 

Total DRAM available = 16384.000 MB.
DRAM currently available =  151.219 MB.
Maximum ngspice program size =   27.641 MB.
Current ngspice program size =   27.641 MB.

