
Note: Compatibility modes selected: hs a


Circuit: SKY130 library cell aoi21_4 A1_to_Y__A2=1,B1=0

option SCALE: Scale is set to 1e-06 for instance and model parameters
Doing analysis at TEMP = 86.653936 and TNOM = 27.000000

Using KLU as Direct Linear Solver
 Reference value :  9.57640e-09
 Reference value :  4.10076e-08
 Reference value :  7.12076e-08
 Reference value :  9.98977e-08
 Reference value :  1.29758e-07
 Reference value :  1.61178e-07
 Reference value :  1.90303e-07
 Reference value :  2.18613e-07
 Reference value :  2.46928e-07
 Reference value :  2.75673e-07
 Reference value :  3.06018e-07
 Reference value :  3.35008e-07
No. of Data Rows : 68032

  Measurements for Transient Analysis

tphl                =  1.59522e-10 targ=  2.44721e-08 trig=  2.43125e-08
tplh                =  3.12551e-10 targ=  9.52502e-08 trig=  9.49376e-08
i_vdd_avg           =  -1.13892e-06 from=  1.00000e-08 to=  3.30003e-07
power_avg_uw        =  2.15179e+00


Total analysis time (seconds) = 2.91144

Total elapsed time (seconds) = 3.071 

Total DRAM available = 16384.000 MB.
DRAM currently available =  129.688 MB.
Maximum ngspice program size =   25.844 MB.
Current ngspice program size =   25.844 MB.

