
Note: Compatibility modes selected: hs a


Circuit: SKY130 library cell nand2_4 A_to_Y__B=1

option SCALE: Scale is set to 1e-06 for instance and model parameters
Doing analysis at TEMP = -15.978995 and TNOM = 27.000000

Using KLU as Direct Linear Solver
 Reference value :  1.52664e-08
 Reference value :  6.55183e-08
 Reference value :  1.10839e-07
 Reference value :  1.57524e-07
 Reference value :  2.05473e-07
 Reference value :  2.53238e-07
 Reference value :  3.03514e-07
No. of Data Rows : 68032

  Measurements for Transient Analysis

tphl                =  8.78011e-11 targ=  2.75932e-08 trig=  2.75054e-08
tplh                =  1.43947e-09 targ=  1.05956e-07 trig=  1.04516e-07
i_vdd_avg           =  -3.23059e-06 from=  1.00000e-08 to=  3.30004e-07
power_avg_uw        =  6.36796e+00


Total analysis time (seconds) = 1.79674

Total elapsed time (seconds) = 1.978 

Total DRAM available = 16384.000 MB.
DRAM currently available =  156.781 MB.
Maximum ngspice program size =   28.672 MB.
Current ngspice program size =   28.672 MB.

