
Note: Compatibility modes selected: hs a


Circuit: SKY130 library cell xor2_4 A_to_X__B=0

option SCALE: Scale is set to 1e-06 for instance and model parameters
Doing analysis at TEMP = 0.658458 and TNOM = 27.000000

Using KLU as Direct Linear Solver
 Reference value :  5.78140e-09
 Reference value :  2.58625e-08
 Reference value :  4.41326e-08
 Reference value :  6.35576e-08
 Reference value :  8.09926e-08
 Reference value :  1.00383e-07
 Reference value :  1.19058e-07
 Reference value :  1.38153e-07
 Reference value :  1.56443e-07
 Reference value :  1.74583e-07
 Reference value :  1.92653e-07
 Reference value :  2.10808e-07
 Reference value :  2.28053e-07
 Reference value :  2.46593e-07
 Reference value :  2.64223e-07
 Reference value :  2.83258e-07
 Reference value :  3.02193e-07
 Reference value :  3.19813e-07
 Reference value :  3.38218e-07
No. of Data Rows : 68032

  Measurements for Transient Analysis

tplh                =  -4.11387e-11 targ=  2.53539e-08 trig=  2.53950e-08
tphl                =  4.35026e-10 targ=  9.86201e-08 trig=  9.81851e-08
i_vdd_avg           =  -7.89137e-07 from=  1.00000e-08 to=  3.30003e-07
power_avg_uw        =  1.46658e+00


Total analysis time (seconds) = 4.67193

Total elapsed time (seconds) = 4.841 

Total DRAM available = 16384.000 MB.
DRAM currently available =  132.250 MB.
Maximum ngspice program size =   29.469 MB.
Current ngspice program size =   29.469 MB.

