
Note: Compatibility modes selected: hs a


Circuit: SKY130 library cell oai21_4 A1_to_Y__A2=0,B1=1

option SCALE: Scale is set to 1e-06 for instance and model parameters
Doing analysis at TEMP = 53.616740 and TNOM = 27.000000

Using KLU as Direct Linear Solver
 Reference value :  8.50140e-09
 Reference value :  3.77136e-08
 Reference value :  6.89086e-08
 Reference value :  1.02350e-07
 Reference value :  1.34235e-07
 Reference value :  1.69025e-07
 Reference value :  2.08584e-07
 Reference value :  2.52564e-07
 Reference value :  2.98245e-07
No. of Data Rows : 68032

  Measurements for Transient Analysis

tphl                =  1.09250e-10 targ=  2.42073e-08 trig=  2.40980e-08
tplh                =  2.44874e-10 targ=  9.45390e-08 trig=  9.42941e-08
i_vdd_avg           =  -1.17605e-06 from=  1.00000e-08 to=  3.30005e-07
power_avg_uw        =  2.29231e+00


Total analysis time (seconds) = 2.31547

Total elapsed time (seconds) = 2.484 

Total DRAM available = 16384.000 MB.
DRAM currently available =  254.812 MB.
Maximum ngspice program size =   26.047 MB.
Current ngspice program size =   26.047 MB.

