
Note: Compatibility modes selected: hs a


Circuit: SKY130 library cell aoi21_4 A1_to_Y__A2=1,B1=0

option SCALE: Scale is set to 1e-06 for instance and model parameters
Doing analysis at TEMP = 62.683452 and TNOM = 27.000000

Using KLU as Direct Linear Solver
 Reference value :  1.02714e-08
 Reference value :  4.43793e-08
 Reference value :  8.06643e-08
 Reference value :  1.15544e-07
 Reference value :  1.46371e-07
 Reference value :  1.77091e-07
 Reference value :  2.08974e-07
 Reference value :  2.41924e-07
 Reference value :  2.74749e-07
 Reference value :  3.06411e-07
 Reference value :  3.38316e-07
No. of Data Rows : 68030

  Measurements for Transient Analysis

tphl                =  -5.26633e-10 targ=  2.89317e-08 trig=  2.94584e-08
tplh                =  1.05783e-09 targ=  1.11433e-07 trig=  1.10375e-07
i_vdd_avg           =  -1.36063e-06 from=  1.00000e-08 to=  3.30001e-07
power_avg_uw        =  2.30908e+00


Total analysis time (seconds) = 2.66068

Total elapsed time (seconds) = 2.844 

Total DRAM available = 16384.000 MB.
DRAM currently available =  189.250 MB.
Maximum ngspice program size =   26.312 MB.
Current ngspice program size =   26.312 MB.

