
Note: Compatibility modes selected: hs a


Circuit: SKY130 library cell nor2_1 A_to_Y__B=0

option SCALE: Scale is set to 1e-06 for instance and model parameters
Doing analysis at TEMP = 42.052623 and TNOM = 27.000000

Using KLU as Direct Linear Solver
 Reference value :  5.79108e-08
 Reference value :  1.95441e-07
No. of Data Rows : 68034

  Measurements for Transient Analysis

tphl                =  7.88857e-10 targ=  2.84580e-08 trig=  2.76691e-08
tplh                =  2.83634e-09 targ=  1.07844e-07 trig=  1.05007e-07
i_vdd_avg           =  -1.51356e-06 from=  1.00000e-08 to=  3.30004e-07
power_avg_uw        =  2.68094e+00


Total analysis time (seconds) = 0.589336

Total elapsed time (seconds) = 0.744 

Total DRAM available = 16384.000 MB.
DRAM currently available =  144.625 MB.
Maximum ngspice program size =   25.328 MB.
Current ngspice program size =   25.328 MB.

