
Note: Compatibility modes selected: hs a


Circuit: SKY130 library cell nor2_4 A_to_Y__B=0

option SCALE: Scale is set to 1e-06 for instance and model parameters
Doing analysis at TEMP = 75.506945 and TNOM = 27.000000

Using KLU as Direct Linear Solver
 Reference value :  1.84264e-08
 Reference value :  6.33106e-08
 Reference value :  1.11291e-07
 Reference value :  1.58614e-07
 Reference value :  2.04721e-07
 Reference value :  2.49356e-07
 Reference value :  2.99004e-07
No. of Data Rows : 68034

  Measurements for Transient Analysis

tphl                =  4.50816e-11 targ=  2.99566e-08 trig=  2.99115e-08
tplh                =  2.15647e-09 targ=  1.13891e-07 trig=  1.11735e-07
i_vdd_avg           =  -2.86670e-06 from=  1.00000e-08 to=  3.30004e-07
power_avg_uw        =  4.85932e+00


Total analysis time (seconds) = 1.81792

Total elapsed time (seconds) = 1.987 

Total DRAM available = 16384.000 MB.
DRAM currently available =  189.250 MB.
Maximum ngspice program size =   26.516 MB.
Current ngspice program size =   26.516 MB.

