
Note: Compatibility modes selected: hs a


Circuit: SKY130 library cell nor2_4 A_to_Y__B=0

option SCALE: Scale is set to 1e-06 for instance and model parameters
Doing analysis at TEMP = -30.118966 and TNOM = 27.000000

Using KLU as Direct Linear Solver
 Reference value :  1.72314e-08
 Reference value :  6.51349e-08
 Reference value :  1.15737e-07
 Reference value :  1.60672e-07
 Reference value :  2.06240e-07
 Reference value :  2.52710e-07
 Reference value :  2.98332e-07
No. of Data Rows : 68030

  Measurements for Transient Analysis

tphl                =  1.25738e-10 targ=  2.48044e-08 trig=  2.46787e-08
tplh                =  5.64510e-10 targ=  9.66006e-08 trig=  9.60361e-08
i_vdd_avg           =  -8.94832e-07 from=  1.00000e-08 to=  3.30002e-07
power_avg_uw        =  1.58038e+00


Total analysis time (seconds) = 1.83782

Total elapsed time (seconds) = 1.999 

Total DRAM available = 16384.000 MB.
DRAM currently available =  151.547 MB.
Maximum ngspice program size =   26.938 MB.
Current ngspice program size =   26.938 MB.

