
Note: Compatibility modes selected: hs a


Circuit: SKY130 library cell inv_1 A_to_Y

option SCALE: Scale is set to 1e-06 for instance and model parameters
Doing analysis at TEMP = 91.432678 and TNOM = 27.000000

Using KLU as Direct Linear Solver
 Reference value :  1.07025e-07
No. of Data Rows : 68030

  Measurements for Transient Analysis

tphl                =  -3.22983e-10 targ=  2.94531e-08 trig=  2.97760e-08
tplh                =  1.40579e-09 targ=  1.12734e-07 trig=  1.11328e-07
i_vdd_avg           =  -1.13027e-06 from=  1.00000e-08 to=  3.30002e-07
power_avg_uw        =  2.07961e+00


Total analysis time (seconds) = 0.346198

Total elapsed time (seconds) = 0.505 

Total DRAM available = 16384.000 MB.
DRAM currently available =  122.750 MB.
Maximum ngspice program size =   24.922 MB.
Current ngspice program size =   24.922 MB.

