
Note: Compatibility modes selected: hs a


Circuit: SKY130 library cell oai21_1 A1_to_Y__A2=0,B1=1

option SCALE: Scale is set to 1e-06 for instance and model parameters
Doing analysis at TEMP = 55.913216 and TNOM = 27.000000

Using KLU as Direct Linear Solver
 Reference value :  3.55848e-08
 Reference value :  1.35202e-07
 Reference value :  2.38165e-07
No. of Data Rows : 68030

  Measurements for Transient Analysis

tphl                =  4.45676e-10 targ=  2.52418e-08 trig=  2.47961e-08
tplh                =  9.93729e-10 targ=  9.73821e-08 trig=  9.63884e-08
i_vdd_avg           =  -8.67264e-07 from=  1.00000e-08 to=  3.30002e-07
power_avg_uw        =  1.60749e+00


Total analysis time (seconds) = 0.846832

Total elapsed time (seconds) = 1.003 

Total DRAM available = 16384.000 MB.
DRAM currently available =  172.297 MB.
Maximum ngspice program size =   25.531 MB.
Current ngspice program size =   25.531 MB.

