
Note: Compatibility modes selected: hs a


Circuit: SKY130 library cell nand2_4 A_to_Y__B=1

option SCALE: Scale is set to 1e-06 for instance and model parameters
Doing analysis at TEMP = 73.415154 and TNOM = 27.000000

Using KLU as Direct Linear Solver
 Reference value :  1.67564e-08
 Reference value :  6.29083e-08
 Reference value :  1.09134e-07
 Reference value :  1.55899e-07
 Reference value :  1.99383e-07
 Reference value :  2.46323e-07
 Reference value :  2.90829e-07
 Reference value :  3.35309e-07
No. of Data Rows : 68032

  Measurements for Transient Analysis

tphl                =  3.16941e-10 targ=  2.52373e-08 trig=  2.49204e-08
tplh                =  5.94422e-10 targ=  9.73556e-08 trig=  9.67612e-08
i_vdd_avg           =  -2.08284e-06 from=  1.00000e-08 to=  3.30004e-07
power_avg_uw        =  3.81774e+00


Total analysis time (seconds) = 1.89327

Total elapsed time (seconds) = 2.045 

Total DRAM available = 16384.000 MB.
DRAM currently available =  158.938 MB.
Maximum ngspice program size =   26.797 MB.
Current ngspice program size =   26.797 MB.

