
Note: Compatibility modes selected: hs a


Circuit: SKY130 library cell mux2_1 A0_to_X__A1=0,S=0

option SCALE: Scale is set to 1e-06 for instance and model parameters
Doing analysis at TEMP = 59.196859 and TNOM = 27.000000

Using KLU as Direct Linear Solver
 Reference value :  1.97514e-08
 Reference value :  7.76300e-08
 Reference value :  1.29782e-07
 Reference value :  1.83407e-07
 Reference value :  2.36405e-07
 Reference value :  2.94137e-07
No. of Data Rows : 68030

  Measurements for Transient Analysis

tplh                =  2.66231e-10 targ=  2.61175e-08 trig=  2.58512e-08
tphl                =  7.79948e-10 targ=  1.00334e-07 trig=  9.95537e-08
i_vdd_avg           =  -8.59860e-07 from=  1.00000e-08 to=  3.30002e-07
power_avg_uw        =  1.60359e+00


Total analysis time (seconds) = 1.56488

Total elapsed time (seconds) = 1.723 

Total DRAM available = 16384.000 MB.
DRAM currently available =  147.297 MB.
Maximum ngspice program size =   26.625 MB.
Current ngspice program size =   26.625 MB.

