
Note: Compatibility modes selected: hs a


Circuit: SKY130 library cell nor2_1 A_to_Y__B=0

option SCALE: Scale is set to 1e-06 for instance and model parameters
Doing analysis at TEMP = 112.472550 and TNOM = 27.000000

Using KLU as Direct Linear Solver
 Reference value :  6.12865e-08
 Reference value :  2.11592e-07
No. of Data Rows : 68032

  Measurements for Transient Analysis

tphl                =  -2.60712e-10 targ=  2.79938e-08 trig=  2.82545e-08
tplh                =  1.07488e-09 targ=  1.07838e-07 trig=  1.06764e-07
i_vdd_avg           =  -7.12169e-07 from=  1.00000e-08 to=  3.30001e-07
power_avg_uw        =  1.29176e+00


Total analysis time (seconds) = 0.584

Total elapsed time (seconds) = 0.734 

Total DRAM available = 16384.000 MB.
DRAM currently available =  128.000 MB.
Maximum ngspice program size =   26.094 MB.
Current ngspice program size =   26.094 MB.

