
Note: Compatibility modes selected: hs a


Circuit: SKY130 library cell oai21_1 A1_to_Y__A2=0,B1=1

option SCALE: Scale is set to 1e-06 for instance and model parameters
Doing analysis at TEMP = 33.829123 and TNOM = 27.000000

Using KLU as Direct Linear Solver
 Reference value :  4.14263e-08
 Reference value :  1.45865e-07
 Reference value :  2.58620e-07
No. of Data Rows : 68032

  Measurements for Transient Analysis

tphl                =  6.44093e-10 targ=  2.57485e-08 trig=  2.51044e-08
tplh                =  1.49888e-09 targ=  9.88121e-08 trig=  9.73133e-08
i_vdd_avg           =  -1.35488e-06 from=  1.00000e-08 to=  3.30000e-07
power_avg_uw        =  2.54956e+00


Total analysis time (seconds) = 0.796471

Total elapsed time (seconds) = 0.942 

Total DRAM available = 16384.000 MB.
DRAM currently available =  135.453 MB.
Maximum ngspice program size =   27.375 MB.
Current ngspice program size =   27.375 MB.

