
Note: Compatibility modes selected: hs a


Circuit: SKY130 library cell nor2_4 A_to_Y__B=0

option SCALE: Scale is set to 1e-06 for instance and model parameters
Doing analysis at TEMP = 54.227117 and TNOM = 27.000000

Using KLU as Direct Linear Solver
 Reference value :  1.13264e-08
 Reference value :  5.65596e-08
 Reference value :  1.00582e-07
 Reference value :  1.46047e-07
 Reference value :  1.90850e-07
 Reference value :  2.39645e-07
 Reference value :  2.88232e-07
No. of Data Rows : 68030

  Measurements for Transient Analysis

tphl                =  2.60439e-10 targ=  2.57490e-08 trig=  2.54886e-08
tplh                =  9.80406e-10 targ=  9.94461e-08 trig=  9.84657e-08
i_vdd_avg           =  -1.39365e-06 from=  1.00000e-08 to=  3.30002e-07
power_avg_uw        =  2.29035e+00


Total analysis time (seconds) = 1.84238

Total elapsed time (seconds) = 2.008 

Total DRAM available = 16384.000 MB.
DRAM currently available =  207.156 MB.
Maximum ngspice program size =   25.984 MB.
Current ngspice program size =   25.984 MB.

