
Note: Compatibility modes selected: hs a


Circuit: SKY130 library cell nand2_1 A_to_Y__B=1

option SCALE: Scale is set to 1e-06 for instance and model parameters
Doing analysis at TEMP = -1.906663 and TNOM = 27.000000

Using KLU as Direct Linear Solver
 Reference value :  5.27561e-08
 Reference value :  2.04201e-07
No. of Data Rows : 68034

  Measurements for Transient Analysis

tphl                =  2.68024e-10 targ=  2.82898e-08 trig=  2.80218e-08
tplh                =  1.78036e-09 targ=  1.07846e-07 trig=  1.06065e-07
i_vdd_avg           =  -5.09740e-07 from=  1.00000e-08 to=  3.30005e-07
power_avg_uw        =  8.75733e-01


Total analysis time (seconds) = 0.595603

Total elapsed time (seconds) = 0.749 

Total DRAM available = 16384.000 MB.
DRAM currently available =  140.516 MB.
Maximum ngspice program size =   23.797 MB.
Current ngspice program size =   23.797 MB.

