
Note: Compatibility modes selected: hs a


Circuit: SKY130 library cell nand3_4 A_to_Y__B=1,C=1

option SCALE: Scale is set to 1e-06 for instance and model parameters
Doing analysis at TEMP = 87.513465 and TNOM = 27.000000

Using KLU as Direct Linear Solver
 Reference value :  1.04464e-08
 Reference value :  4.14785e-08
 Reference value :  6.96135e-08
 Reference value :  9.92785e-08
 Reference value :  1.30304e-07
 Reference value :  1.59804e-07
 Reference value :  1.91343e-07
 Reference value :  2.22488e-07
 Reference value :  2.52328e-07
 Reference value :  2.80524e-07
 Reference value :  3.09359e-07
 Reference value :  3.37304e-07
No. of Data Rows : 68032

  Measurements for Transient Analysis

tphl                =  -1.11710e-10 targ=  2.82038e-08 trig=  2.83155e-08
tplh                =  7.85458e-10 targ=  1.07732e-07 trig=  1.06946e-07
i_vdd_avg           =  -3.49676e-06 from=  1.00000e-08 to=  3.30004e-07
power_avg_uw        =  6.72947e+00


Total analysis time (seconds) = 2.9067

Total elapsed time (seconds) = 3.063 

Total DRAM available = 16384.000 MB.
DRAM currently available =  113.156 MB.
Maximum ngspice program size =   26.422 MB.
Current ngspice program size =   26.422 MB.

