
Note: Compatibility modes selected: hs a


Circuit: SKY130 library cell xor2_1 A_to_X__B=0

option SCALE: Scale is set to 1e-06 for instance and model parameters
Doing analysis at TEMP = 103.617000 and TNOM = 27.000000

Using KLU as Direct Linear Solver
 Reference value :  1.89214e-08
 Reference value :  8.64902e-08
 Reference value :  1.53123e-07
 Reference value :  2.16135e-07
 Reference value :  2.77508e-07
No. of Data Rows : 68034

  Measurements for Transient Analysis

tplh                =  5.14765e-10 targ=  2.91636e-08 trig=  2.86489e-08
tphl                =  1.29420e-09 targ=  1.09241e-07 trig=  1.07947e-07
i_vdd_avg           =  -1.97398e-06 from=  1.00000e-08 to=  3.30003e-07
power_avg_uw        =  3.60483e+00


Total analysis time (seconds) = 1.32227

Total elapsed time (seconds) = 1.480 

Total DRAM available = 16384.000 MB.
DRAM currently available =  151.219 MB.
Maximum ngspice program size =   25.219 MB.
Current ngspice program size =   25.219 MB.

