
Note: Compatibility modes selected: hs a


Circuit: SKY130 library cell mux2_4 A0_to_X__A1=0,S=0

option SCALE: Scale is set to 1e-06 for instance and model parameters
Doing analysis at TEMP = -18.854140 and TNOM = 27.000000

Using KLU as Direct Linear Solver
 Reference value :  1.49814e-08
 Reference value :  5.37091e-08
 Reference value :  9.51941e-08
 Reference value :  1.35691e-07
 Reference value :  1.79626e-07
 Reference value :  2.20579e-07
 Reference value :  2.57494e-07
 Reference value :  2.98121e-07
 Reference value :  3.38401e-07
No. of Data Rows : 68030

  Measurements for Transient Analysis

tplh                =  1.66785e-10 targ=  2.65901e-08 trig=  2.64233e-08
tphl                =  1.03260e-09 targ=  1.02303e-07 trig=  1.01270e-07
i_vdd_avg           =  -2.21422e-06 from=  1.00000e-08 to=  3.30001e-07
power_avg_uw        =  4.14078e+00


Total analysis time (seconds) = 2.12951

Total elapsed time (seconds) = 2.281 

Total DRAM available = 16384.000 MB.
DRAM currently available =  114.500 MB.
Maximum ngspice program size =   26.484 MB.
Current ngspice program size =   26.484 MB.

