
Note: Compatibility modes selected: hs a


Circuit: SKY130 library cell aoi21_4 A1_to_Y__A2=1,B1=0

option SCALE: Scale is set to 1e-06 for instance and model parameters
Doing analysis at TEMP = 106.164410 and TNOM = 27.000000

Using KLU as Direct Linear Solver
 Reference value :  1.07464e-08
 Reference value :  4.11060e-08
 Reference value :  7.10210e-08
 Reference value :  9.89110e-08
 Reference value :  1.28230e-07
 Reference value :  1.58395e-07
 Reference value :  1.89621e-07
 Reference value :  2.17326e-07
 Reference value :  2.45201e-07
 Reference value :  2.75495e-07
 Reference value :  3.09510e-07
No. of Data Rows : 68034

  Measurements for Transient Analysis

tphl                =  5.51099e-11 targ=  2.61419e-08 trig=  2.60868e-08
tplh                =  6.49550e-10 targ=  1.00910e-07 trig=  1.00260e-07
i_vdd_avg           =  -2.03343e-06 from=  1.00000e-08 to=  3.30005e-07
power_avg_uw        =  3.92526e+00


Total analysis time (seconds) = 2.8628

Total elapsed time (seconds) = 3.024 

Total DRAM available = 16384.000 MB.
DRAM currently available =  128.000 MB.
Maximum ngspice program size =   25.641 MB.
Current ngspice program size =   25.641 MB.

