
Note: Compatibility modes selected: hs a


Circuit: SKY130 library cell oai21_4 A1_to_Y__A2=0,B1=1

option SCALE: Scale is set to 1e-06 for instance and model parameters
Doing analysis at TEMP = 74.061365 and TNOM = 27.000000

Using KLU as Direct Linear Solver
 Reference value :  1.02364e-08
 Reference value :  3.84053e-08
 Reference value :  6.80303e-08
 Reference value :  9.82203e-08
 Reference value :  1.28418e-07
 Reference value :  1.59123e-07
 Reference value :  1.90670e-07
 Reference value :  2.21300e-07
 Reference value :  2.53525e-07
 Reference value :  2.85933e-07
 Reference value :  3.17003e-07
No. of Data Rows : 68034

  Measurements for Transient Analysis

tphl                =  -9.44333e-11 targ=  2.50395e-08 trig=  2.51339e-08
tplh                =  2.83358e-10 targ=  9.76851e-08 trig=  9.74017e-08
i_vdd_avg           =  -7.16210e-07 from=  1.00000e-08 to=  3.30003e-07
power_avg_uw        =  1.37125e+00


Total analysis time (seconds) = 2.78679

Total elapsed time (seconds) = 2.939 

Total DRAM available = 16384.000 MB.
DRAM currently available =  134.219 MB.
Maximum ngspice program size =   27.094 MB.
Current ngspice program size =   27.094 MB.

