
Note: Compatibility modes selected: hs a


Circuit: SKY130 library cell oai21_1 A1_to_Y__A2=0,B1=1

option SCALE: Scale is set to 1e-06 for instance and model parameters
Doing analysis at TEMP = 101.097830 and TNOM = 27.000000

Using KLU as Direct Linear Solver
 Reference value :  2.92425e-08
 Reference value :  1.34170e-07
 Reference value :  2.50921e-07
No. of Data Rows : 68034

  Measurements for Transient Analysis

tphl                =  1.09617e-09 targ=  2.80979e-08 trig=  2.70018e-08
tplh                =  2.45743e-09 targ=  1.05463e-07 trig=  1.03005e-07
i_vdd_avg           =  -2.32397e-06 from=  1.00000e-08 to=  3.30005e-07
power_avg_uw        =  4.50441e+00


Total analysis time (seconds) = 0.797439

Total elapsed time (seconds) = 0.961 

Total DRAM available = 16384.000 MB.
DRAM currently available =  140.312 MB.
Maximum ngspice program size =   26.516 MB.
Current ngspice program size =   26.516 MB.

