
Note: Compatibility modes selected: hs a


Circuit: SKY130 library cell inv_4 A_to_Y

option SCALE: Scale is set to 1e-06 for instance and model parameters
Doing analysis at TEMP = 13.638268 and TNOM = 27.000000

Using KLU as Direct Linear Solver
 Reference value :  3.36725e-08
 Reference value :  1.23164e-07
 Reference value :  2.08691e-07
 Reference value :  2.91754e-07
No. of Data Rows : 68034

  Measurements for Transient Analysis

tphl                =  -8.62165e-10 targ=  2.84721e-08 trig=  2.93342e-08
tplh                =  1.03818e-09 targ=  1.11041e-07 trig=  1.10003e-07
i_vdd_avg           =  -2.03882e-06 from=  1.00000e-08 to=  3.30004e-07
power_avg_uw        =  3.75389e+00


Total analysis time (seconds) = 0.990033

Total elapsed time (seconds) = 1.131 

Total DRAM available = 16384.000 MB.
DRAM currently available =  114.609 MB.
Maximum ngspice program size =   26.125 MB.
Current ngspice program size =   26.125 MB.

