
Note: Compatibility modes selected: hs a


Circuit: SKY130 library cell nand3_4 A_to_Y__B=1,C=1

option SCALE: Scale is set to 1e-06 for instance and model parameters
Doing analysis at TEMP = 124.725380 and TNOM = 27.000000

Using KLU as Direct Linear Solver
 Reference value :  1.27314e-08
 Reference value :  4.66242e-08
 Reference value :  7.86792e-08
 Reference value :  1.12816e-07
 Reference value :  1.43776e-07
 Reference value :  1.76191e-07
 Reference value :  2.06189e-07
 Reference value :  2.34749e-07
 Reference value :  2.67126e-07
 Reference value :  2.98301e-07
 Reference value :  3.32831e-07
No. of Data Rows : 68030

  Measurements for Transient Analysis

tphl                =  4.75836e-10 targ=  2.53192e-08 trig=  2.48433e-08
tplh                =  5.72281e-10 targ=  9.71023e-08 trig=  9.65300e-08
i_vdd_avg           =  -2.55423e-06 from=  1.00000e-08 to=  3.30001e-07
power_avg_uw        =  4.69917e+00


Total analysis time (seconds) = 2.72104

Total elapsed time (seconds) = 2.868 

Total DRAM available = 16384.000 MB.
DRAM currently available =  178.266 MB.
Maximum ngspice program size =   27.641 MB.
Current ngspice program size =   27.641 MB.

