
Note: Compatibility modes selected: hs a


Circuit: SKY130 library cell aoi21_1 A1_to_Y__A2=1,B1=0

option SCALE: Scale is set to 1e-06 for instance and model parameters
Doing analysis at TEMP = -7.456319 and TNOM = 27.000000

Using KLU as Direct Linear Solver
 Reference value :  3.48072e-08
 Reference value :  1.36687e-07
 Reference value :  2.41422e-07
 Reference value :  3.33442e-07
No. of Data Rows : 68032

  Measurements for Transient Analysis

tphl                =  6.79853e-10 targ=  2.88222e-08 trig=  2.81424e-08
tplh                =  2.79191e-09 targ=  1.09219e-07 trig=  1.06427e-07
i_vdd_avg           =  -9.63659e-07 from=  1.00000e-08 to=  3.30002e-07
power_avg_uw        =  1.68910e+00


Total analysis time (seconds) = 0.869585

Total elapsed time (seconds) = 1.024 

Total DRAM available = 16384.000 MB.
DRAM currently available =  120.953 MB.
Maximum ngspice program size =   26.594 MB.
Current ngspice program size =   26.594 MB.

