
Note: Compatibility modes selected: hs a


Circuit: SKY130 library cell nand2_4 A_to_Y__B=1

option SCALE: Scale is set to 1e-06 for instance and model parameters
Doing analysis at TEMP = 109.114370 and TNOM = 27.000000

Using KLU as Direct Linear Solver
 Reference value :  1.08564e-08
 Reference value :  6.20123e-08
 Reference value :  1.04952e-07
 Reference value :  1.53642e-07
 Reference value :  1.94547e-07
 Reference value :  2.39657e-07
 Reference value :  2.86292e-07
 Reference value :  3.28357e-07
No. of Data Rows : 68032

  Measurements for Transient Analysis

tphl                =  -4.17026e-12 targ=  2.51482e-08 trig=  2.51524e-08
tplh                =  2.44535e-10 targ=  9.77017e-08 trig=  9.74571e-08
i_vdd_avg           =  -7.01340e-07 from=  1.00000e-08 to=  3.30002e-07
power_avg_uw        =  1.22342e+00


Total analysis time (seconds) = 1.91347

Total elapsed time (seconds) = 2.082 

Total DRAM available = 16384.000 MB.
DRAM currently available =  140.312 MB.
Maximum ngspice program size =   26.172 MB.
Current ngspice program size =   26.172 MB.

