
Note: Compatibility modes selected: hs a


Circuit: SKY130 library cell oai21_4 A1_to_Y__A2=0,B1=1

option SCALE: Scale is set to 1e-06 for instance and model parameters
Doing analysis at TEMP = 38.762954 and TNOM = 27.000000

Using KLU as Direct Linear Solver
 Reference value :  7.89640e-09
 Reference value :  3.87167e-08
 Reference value :  6.73867e-08
 Reference value :  9.73917e-08
 Reference value :  1.28066e-07
 Reference value :  1.57181e-07
 Reference value :  1.88993e-07
 Reference value :  2.18952e-07
 Reference value :  2.47062e-07
 Reference value :  2.76946e-07
 Reference value :  3.06776e-07
 Reference value :  3.38621e-07
No. of Data Rows : 68032

  Measurements for Transient Analysis

tphl                =  -3.50674e-11 targ=  2.84470e-08 trig=  2.84821e-08
tplh                =  1.62108e-09 targ=  1.09067e-07 trig=  1.07446e-07
i_vdd_avg           =  -2.34504e-06 from=  1.00000e-08 to=  3.30001e-07
power_avg_uw        =  4.29347e+00


Total analysis time (seconds) = 2.86237

Total elapsed time (seconds) = 3.031 

Total DRAM available = 16384.000 MB.
DRAM currently available =  109.031 MB.
Maximum ngspice program size =   27.203 MB.
Current ngspice program size =   27.203 MB.

