
Note: Compatibility modes selected: hs a


Circuit: SKY130 library cell inv_4 A_to_Y

option SCALE: Scale is set to 1e-06 for instance and model parameters
Doing analysis at TEMP = 72.558293 and TNOM = 27.000000

Using KLU as Direct Linear Solver
 Reference value :  3.40075e-08
 Reference value :  1.28298e-07
 Reference value :  2.21758e-07
 Reference value :  3.10408e-07
No. of Data Rows : 68032

  Measurements for Transient Analysis

tphl                =  -1.11631e-10 targ=  2.88209e-08 trig=  2.89325e-08
tplh                =  1.56699e-09 targ=  1.10365e-07 trig=  1.08798e-07
i_vdd_avg           =  -5.88296e-06 from=  1.00000e-08 to=  3.30003e-07
power_avg_uw        =  1.16317e+01


Total analysis time (seconds) = 0.942932

Total elapsed time (seconds) = 1.082 

Total DRAM available = 16384.000 MB.
DRAM currently available =  178.266 MB.
Maximum ngspice program size =   24.609 MB.
Current ngspice program size =   24.609 MB.

