
Note: Compatibility modes selected: hs a


Circuit: SKY130 library cell aoi21_1 A1_to_Y__A2=1,B1=0

option SCALE: Scale is set to 1e-06 for instance and model parameters
Doing analysis at TEMP = 91.859473 and TNOM = 27.000000

Using KLU as Direct Linear Solver
 Reference value :  3.52540e-08
 Reference value :  1.40881e-07
 Reference value :  2.45319e-07
No. of Data Rows : 68030

  Measurements for Transient Analysis

tphl                =  2.16263e-10 targ=  2.72020e-08 trig=  2.69858e-08
tplh                =  1.16771e-09 targ=  1.04125e-07 trig=  1.02957e-07
i_vdd_avg           =  -9.11281e-07 from=  1.00000e-08 to=  3.30001e-07
power_avg_uw        =  1.79863e+00


Total analysis time (seconds) = 0.81192

Total elapsed time (seconds) = 0.968 

Total DRAM available = 16384.000 MB.
DRAM currently available =  132.250 MB.
Maximum ngspice program size =   24.844 MB.
Current ngspice program size =   24.844 MB.

