
Note: Compatibility modes selected: hs a


Circuit: SKY130 library cell inv_4 A_to_Y

option SCALE: Scale is set to 1e-06 for instance and model parameters
Doing analysis at TEMP = -15.614072 and TNOM = 27.000000

Using KLU as Direct Linear Solver
 Reference value :  3.00325e-08
 Reference value :  1.08080e-07
 Reference value :  1.86673e-07
 Reference value :  2.69780e-07
No. of Data Rows : 68032

  Measurements for Transient Analysis

tphl                =  9.38703e-11 targ=  2.74434e-08 trig=  2.73495e-08
tplh                =  1.51396e-09 targ=  1.05562e-07 trig=  1.04048e-07
i_vdd_avg           =  -1.65453e-06 from=  1.00000e-08 to=  3.30000e-07
power_avg_uw        =  2.86446e+00


Total analysis time (seconds) = 1.05348

Total elapsed time (seconds) = 1.211 

Total DRAM available = 16384.000 MB.
DRAM currently available =  147.297 MB.
Maximum ngspice program size =   24.750 MB.
Current ngspice program size =   24.750 MB.

