
Note: Compatibility modes selected: hs a


Circuit: SKY130 library cell aoi21_1 A1_to_Y__A2=1,B1=0

option SCALE: Scale is set to 1e-06 for instance and model parameters
Doing analysis at TEMP = 39.657072 and TNOM = 27.000000

Using KLU as Direct Linear Solver
 Reference value :  4.15992e-08
 Reference value :  1.49121e-07
 Reference value :  2.49779e-07
No. of Data Rows : 68030

  Measurements for Transient Analysis

tphl                =  7.70562e-10 targ=  2.67614e-08 trig=  2.59909e-08
tplh                =  1.85624e-09 targ=  1.01829e-07 trig=  9.99726e-08
i_vdd_avg           =  -1.32257e-06 from=  1.00000e-08 to=  3.30001e-07
power_avg_uw        =  2.44452e+00


Total analysis time (seconds) = 0.803909

Total elapsed time (seconds) = 0.951 

Total DRAM available = 16384.000 MB.
DRAM currently available =  151.219 MB.
Maximum ngspice program size =   28.562 MB.
Current ngspice program size =   28.562 MB.

