
Note: Compatibility modes selected: hs a


Circuit: SKY130 library cell inv_1 A_to_Y

option SCALE: Scale is set to 1e-06 for instance and model parameters
Doing analysis at TEMP = 49.799159 and TNOM = 27.000000

Using KLU as Direct Linear Solver
 Reference value :  9.38234e-08
 Reference value :  3.30054e-07
No. of Data Rows : 68032

  Measurements for Transient Analysis

tphl                =  4.00772e-10 targ=  2.59637e-08 trig=  2.55629e-08
tplh                =  1.06008e-09 targ=  9.97489e-08 trig=  9.86888e-08
i_vdd_avg           =  -5.50387e-07 from=  1.00000e-08 to=  3.30004e-07
power_avg_uw        =  9.05570e-01


Total analysis time (seconds) = 0.362159

Total elapsed time (seconds) = 0.508 

Total DRAM available = 16384.000 MB.
DRAM currently available =  151.219 MB.
Maximum ngspice program size =   24.578 MB.
Current ngspice program size =   24.578 MB.

