
Note: No compatibility mode selected!


Circuit: NAND2 seed characterization sample 6300026

Doing analysis at TEMP = 43.825500 and TNOM = 27.000000

Using SPARSE 1.3 as Direct Linear Solver

Initial Transient Solution
--------------------------

Node                                   Voltage
----                                   -------
vdd                                    1.80505
in                                           0
out                                    1.80505
nmid                                 0.0550863
vin#branch                                   0
vdd#branch                        -8.58758e-12

 Reference value :  3.68646e-08
 Reference value :  7.86526e-08
No. of Data Rows : 60044

  Measurements for Transient Analysis

tphl                =  1.03275e-10 targ=  2.15416e-09 trig=  2.05089e-09
tplh                =  5.21272e-11 targ=  2.22048e-08 trig=  2.21527e-08
i_vdd_avg           =  -1.93857e-06 from=  5.00000e-09 to=  1.10001e-07
power_avg_uw        =  3.49921e+00


Total analysis time (seconds) = 0.669009

Total elapsed time (seconds) = 0.756 

Total DRAM available = 16384.000 MB.
DRAM currently available =  113.828 MB.
Maximum ngspice program size =   15.781 MB.
Current ngspice program size =   15.781 MB.

