
Note: No compatibility mode selected!


Circuit: INV seed characterization sample 6300022

Doing analysis at TEMP = 53.778200 and TNOM = 27.000000

Using SPARSE 1.3 as Direct Linear Solver

Initial Transient Solution
--------------------------

Node                                   Voltage
----                                   -------
vdd                                    1.89161
in                                           0
out                                    1.89161
vin#branch                                   0
vdd#branch                        -9.94088e-11

 Reference value :  5.23436e-08
No. of Data Rows : 60041

  Measurements for Transient Analysis

tphl                =  1.21249e-10 targ=  2.30552e-09 trig=  2.18428e-09
tplh                =  1.84539e-10 targ=  2.27374e-08 trig=  2.25528e-08
i_vdd_avg           =  -3.12311e-06 from=  5.00000e-09 to=  1.10000e-07
power_avg_uw        =  5.90771e+00


Total analysis time (seconds) = 0.394178

Total elapsed time (seconds) = 0.498 

Total DRAM available = 16384.000 MB.
DRAM currently available =  113.828 MB.
Maximum ngspice program size =   15.953 MB.
Current ngspice program size =   15.953 MB.

