
Note: No compatibility mode selected!


Circuit: XOR2 seed characterization sample 6300088

Doing analysis at TEMP = 11.755800 and TNOM = 27.000000

Using SPARSE 1.3 as Direct Linear Solver

Initial Transient Solution
--------------------------

Node                                   Voltage
----                                   -------
vdd                                    1.87701
in                                           0
b                                      1.87701
abar                                   1.87701
bbar                               2.17306e-09
out                                    1.87701
vb#branch                                    0
vin#branch                         4.75348e-12
vdd#branch                        -1.63432e-11

 Reference value :  1.04109e-08
 Reference value :  4.16287e-08
 Reference value :  7.57967e-08
 Reference value :  1.09251e-07
No. of Data Rows : 60044

  Measurements for Transient Analysis

tphl                =  1.34085e-10 targ=  2.19102e-09 trig=  2.05693e-09
tplh                =  1.28110e-10 targ=  2.22989e-08 trig=  2.21708e-08
i_vdd_avg           =  -1.93016e-06 from=  5.00000e-09 to=  1.10001e-07
power_avg_uw        =  3.62292e+00


Total analysis time (seconds) = 0.954129

Total elapsed time (seconds) = 1.074 

Total DRAM available = 16384.000 MB.
DRAM currently available =  101.609 MB.
Maximum ngspice program size =   14.906 MB.
Current ngspice program size =   14.906 MB.

