
Note: No compatibility mode selected!


Circuit: NAND2 seed characterization sample 6300034

Doing analysis at TEMP = -16.149000 and TNOM = 27.000000

Using SPARSE 1.3 as Direct Linear Solver

Initial Transient Solution
--------------------------

Node                                   Voltage
----                                   -------
vdd                                    1.93472
in                                           0
out                                    1.93472
nmid                                 0.0343105
vin#branch                                   0
vdd#branch                        -2.06944e-12

 Reference value :  3.47480e-08
 Reference value :  7.66740e-08
 Reference value :  1.17030e-07
No. of Data Rows : 60047

  Measurements for Transient Analysis

tphl                =  1.33374e-10 targ=  2.23212e-09 trig=  2.09875e-09
tplh                =  8.34253e-11 targ=  2.23797e-08 trig=  2.22962e-08
i_vdd_avg           =  -3.22955e-06 from=  5.00000e-09 to=  1.10002e-07
power_avg_uw        =  6.24827e+00


Total analysis time (seconds) = 0.686605

Total elapsed time (seconds) = 0.783 

Total DRAM available = 16384.000 MB.
DRAM currently available =  113.828 MB.
Maximum ngspice program size =   17.531 MB.
Current ngspice program size =   17.531 MB.

