
Note: No compatibility mode selected!


Circuit: XOR2 seed characterization sample 6300094

Doing analysis at TEMP = 5.795830 and TNOM = 27.000000

Using SPARSE 1.3 as Direct Linear Solver

Initial Transient Solution
--------------------------

Node                                   Voltage
----                                   -------
vdd                                    1.96642
in                                           0
b                                      1.96642
abar                                   1.96642
bbar                               8.42578e-10
out                                    1.96642
vb#branch                                    0
vin#branch                         7.59167e-12
vdd#branch                        -2.18514e-11

 Reference value :  1.70166e-08
 Reference value :  5.14186e-08
 Reference value :  8.48366e-08
 Reference value :  1.18216e-07
No. of Data Rows : 60044

  Measurements for Transient Analysis

tphl                =  1.72066e-10 targ=  2.29387e-09 trig=  2.12180e-09
tplh                =  1.95595e-10 targ=  2.25610e-08 trig=  2.23654e-08
i_vdd_avg           =  -6.37697e-06 from=  5.00000e-09 to=  1.10000e-07
power_avg_uw        =  1.25398e+01


Total analysis time (seconds) = 0.88789

Total elapsed time (seconds) = 1.002 

Total DRAM available = 16384.000 MB.
DRAM currently available =  117.016 MB.
Maximum ngspice program size =   13.438 MB.
Current ngspice program size =   13.438 MB.

