
Note: No compatibility mode selected!


Circuit: XOR2 seed characterization sample 4421004

Doing analysis at TEMP = 22.369500 and TNOM = 27.000000

Using SPARSE 1.3 as Direct Linear Solver

Initial Transient Solution
--------------------------

Node                                   Voltage
----                                   -------
vdd                                    1.95825
in                                           0
b                                      1.95825
abar                                   1.95825
bbar                               4.81529e-09
out                                    1.95825
vb#branch                                    0
vin#branch                         2.12788e-12
vdd#branch                        -1.21093e-11

 Reference value :  2.50246e-08
 Reference value :  5.91268e-08
 Reference value :  9.48248e-08
No. of Data Rows : 60044

  Measurements for Transient Analysis

tphl                =  2.74172e-10 targ=  2.33207e-09 trig=  2.05789e-09
tplh                =  3.27962e-10 targ=  2.25016e-08 trig=  2.21737e-08
i_vdd_avg           =  -1.97023e-06 from=  5.00000e-09 to=  1.10001e-07
power_avg_uw        =  3.85820e+00


Total analysis time (seconds) = 0.825768

Total elapsed time (seconds) = 0.902 

Total DRAM available = 16384.000 MB.
DRAM currently available =  182.297 MB.
Maximum ngspice program size =   12.562 MB.
Current ngspice program size =   11.969 MB.

