
Note: No compatibility mode selected!


Circuit: NAND2 seed characterization sample 4421046

Doing analysis at TEMP = 12.106800 and TNOM = 27.000000

Using SPARSE 1.3 as Direct Linear Solver

Initial Transient Solution
--------------------------

Node                                   Voltage
----                                   -------
vdd                                     1.6774
in                                           0
out                                     1.6774
nmid                                 0.0227606
vin#branch                                   0
vdd#branch                        -1.76421e-12

 Reference value :  4.64298e-08
 Reference value :  1.07251e-07
No. of Data Rows : 60041

  Measurements for Transient Analysis

tphl                =  2.82263e-10 targ=  2.31668e-09 trig=  2.03442e-09
tplh                =  1.00290e-10 targ=  2.22036e-08 trig=  2.21033e-08
i_vdd_avg           =  -3.93650e-06 from=  5.00000e-09 to=  1.10001e-07
power_avg_uw        =  6.60308e+00


Total analysis time (seconds) = 0.473436

Total elapsed time (seconds) = 0.545 

Total DRAM available = 16384.000 MB.
DRAM currently available =  192.828 MB.
Maximum ngspice program size =   12.562 MB.
Current ngspice program size =   11.688 MB.

