
Note: No compatibility mode selected!


Circuit: XOR2 seed characterization sample 4421012

Doing analysis at TEMP = -19.854500 and TNOM = 27.000000

Using SPARSE 1.3 as Direct Linear Solver

Initial Transient Solution
--------------------------

Node                                   Voltage
----                                   -------
vdd                                    1.96617
in                                           0
b                                      1.96617
abar                                   1.96617
bbar                               2.81224e-09
out                                    1.96617
vb#branch                                    0
vin#branch                         1.98079e-12
vdd#branch                         -1.1865e-11

 Reference value :  2.76632e-08
 Reference value :  6.35092e-08
 Reference value :  1.01300e-07
No. of Data Rows : 60047

  Measurements for Transient Analysis

tphl                =  3.46191e-10 targ=  2.39974e-09 trig=  2.05355e-09
tplh                =  4.56733e-10 targ=  2.26174e-08 trig=  2.21606e-08
i_vdd_avg           =  -4.14754e-06 from=  5.00000e-09 to=  1.10001e-07
power_avg_uw        =  8.15478e+00


Total analysis time (seconds) = 0.783195

Total elapsed time (seconds) = 0.852 

Total DRAM available = 16384.000 MB.
DRAM currently available =  181.906 MB.
Maximum ngspice program size =   12.578 MB.
Current ngspice program size =   11.812 MB.

