
Note: No compatibility mode selected!


Circuit: NAND2 seed characterization sample 4421010

Doing analysis at TEMP = 68.471300 and TNOM = 27.000000

Using SPARSE 1.3 as Direct Linear Solver

Initial Transient Solution
--------------------------

Node                                   Voltage
----                                   -------
vdd                                     1.9123
in                                           0
out                                     1.9123
nmid                                 0.0532005
vin#branch                                   0
vdd#branch                        -4.36238e-12

 Reference value :  4.96456e-08
 Reference value :  1.12992e-07
No. of Data Rows : 60041

  Measurements for Transient Analysis

tphl                =  4.02884e-10 targ=  2.47420e-09 trig=  2.07132e-09
tplh                =  1.49270e-10 targ=  2.23632e-08 trig=  2.22140e-08
i_vdd_avg           =  -6.64965e-06 from=  5.00000e-09 to=  1.10000e-07
power_avg_uw        =  1.27161e+01


Total analysis time (seconds) = 0.455821

Total elapsed time (seconds) = 0.522 

Total DRAM available = 16384.000 MB.
DRAM currently available =  181.906 MB.
Maximum ngspice program size =   12.562 MB.
Current ngspice program size =   11.625 MB.

