
Note: No compatibility mode selected!


Circuit: NOR2 seed characterization sample 4421023

Doing analysis at TEMP = 66.516400 and TNOM = 27.000000

Using SPARSE 1.3 as Direct Linear Solver

Initial Transient Solution
--------------------------

Node                                   Voltage
----                                   -------
vdd                                    1.67317
in                                           0
out                                    1.67317
pmid                                   1.67317
vin#branch                                   0
vdd#branch                        -2.74147e-11

 Reference value :  4.60834e-08
 Reference value :  1.05892e-07
No. of Data Rows : 60044

  Measurements for Transient Analysis

tphl                =  1.34426e-10 targ=  2.31863e-09 trig=  2.18420e-09
tplh                =  3.87027e-10 targ=  2.29396e-08 trig=  2.25526e-08
i_vdd_avg           =  -3.12722e-06 from=  5.00000e-09 to=  1.10002e-07
power_avg_uw        =  5.23236e+00


Total analysis time (seconds) = 0.48223

Total elapsed time (seconds) = 0.552 

Total DRAM available = 16384.000 MB.
DRAM currently available =  192.000 MB.
Maximum ngspice program size =   12.938 MB.
Current ngspice program size =   12.938 MB.

