
Note: No compatibility mode selected!


Circuit: NAND2 seed characterization sample 4421014

Doing analysis at TEMP = 63.520400 and TNOM = 27.000000

Using SPARSE 1.3 as Direct Linear Solver

Initial Transient Solution
--------------------------

Node                                   Voltage
----                                   -------
vdd                                    1.69998
in                                           0
out                                    1.69998
nmid                                 0.0489037
vin#branch                                   0
vdd#branch                        -3.90527e-12

 Reference value :  4.83760e-08
 Reference value :  1.10717e-07
No. of Data Rows : 60050

  Measurements for Transient Analysis

tphl                =  1.55864e-10 targ=  2.16591e-09 trig=  2.01005e-09
tplh                =  4.24242e-11 targ=  2.20726e-08 trig=  2.20302e-08
i_vdd_avg           =  -2.34037e-06 from=  5.00000e-09 to=  1.10001e-07
power_avg_uw        =  3.97858e+00


Total analysis time (seconds) = 0.463447

Total elapsed time (seconds) = 0.531 

Total DRAM available = 16384.000 MB.
DRAM currently available =  205.297 MB.
Maximum ngspice program size =   13.422 MB.
Current ngspice program size =   12.656 MB.

