
Note: No compatibility mode selected!


Circuit: INV seed characterization sample 4421045

Doing analysis at TEMP = 34.838500 and TNOM = 27.000000

Using SPARSE 1.3 as Direct Linear Solver

Initial Transient Solution
--------------------------

Node                                   Voltage
----                                   -------
vdd                                    1.70266
in                                           0
out                                    1.70266
vin#branch                                   0
vdd#branch                        -2.76604e-12

 Reference value :  7.23920e-08
No. of Data Rows : 60041

  Measurements for Transient Analysis

tphl                =  2.00621e-10 targ=  2.37688e-09 trig=  2.17626e-09
tplh                =  2.21389e-10 targ=  2.27502e-08 trig=  2.25288e-08
i_vdd_avg           =  -2.81388e-06 from=  5.00000e-09 to=  1.10000e-07
power_avg_uw        =  4.79108e+00


Total analysis time (seconds) = 0.294129

Total elapsed time (seconds) = 0.366 

Total DRAM available = 16384.000 MB.
DRAM currently available =  192.828 MB.
Maximum ngspice program size =   12.594 MB.
Current ngspice program size =   11.625 MB.

