
Note: No compatibility mode selected!


Circuit: INV seed characterization sample 4421033

Doing analysis at TEMP = 93.979400 and TNOM = 27.000000

Using SPARSE 1.3 as Direct Linear Solver

Initial Transient Solution
--------------------------

Node                                   Voltage
----                                   -------
vdd                                    1.73031
in                                           0
out                                    1.73031
vin#branch                                   0
vdd#branch                        -4.45722e-11

 Reference value :  7.25538e-08
No. of Data Rows : 60044

  Measurements for Transient Analysis

tphl                =  2.28023e-10 targ=  2.29422e-09 trig=  2.06620e-09
tplh                =  2.50371e-10 targ=  2.24490e-08 trig=  2.21986e-08
i_vdd_avg           =  -4.26568e-06 from=  5.00000e-09 to=  1.10002e-07
power_avg_uw        =  7.38095e+00


Total analysis time (seconds) = 0.297413

Total elapsed time (seconds) = 0.366 

Total DRAM available = 16384.000 MB.
DRAM currently available =  186.828 MB.
Maximum ngspice program size =   12.562 MB.
Current ngspice program size =   11.594 MB.

