
Note: No compatibility mode selected!


Circuit: NAND2 seed characterization sample 4421038

Doing analysis at TEMP = -11.629500 and TNOM = 27.000000

Using SPARSE 1.3 as Direct Linear Solver

Initial Transient Solution
--------------------------

Node                                   Voltage
----                                   -------
vdd                                    1.68353
in                                           0
out                                    1.68353
nmid                                0.00164559
vin#branch                                   0
vdd#branch                        -1.69826e-12

 Reference value :  4.67728e-08
 Reference value :  1.07493e-07
No. of Data Rows : 60044

  Measurements for Transient Analysis

tphl                =  6.61179e-10 targ=  2.82310e-09 trig=  2.16192e-09
tplh                =  3.70791e-10 targ=  2.28565e-08 trig=  2.24857e-08
i_vdd_avg           =  -3.43337e-06 from=  5.00000e-09 to=  1.10001e-07
power_avg_uw        =  5.78018e+00


Total analysis time (seconds) = 0.475156

Total elapsed time (seconds) = 0.545 

Total DRAM available = 16384.000 MB.
DRAM currently available =  160.641 MB.
Maximum ngspice program size =   12.562 MB.
Current ngspice program size =   12.172 MB.

