
Note: No compatibility mode selected!


Circuit: NOR2 seed characterization sample 4421031

Doing analysis at TEMP = 41.705000 and TNOM = 27.000000

Using SPARSE 1.3 as Direct Linear Solver

Initial Transient Solution
--------------------------

Node                                   Voltage
----                                   -------
vdd                                     1.8673
in                                           0
out                                     1.8673
pmid                                    1.8673
vin#branch                                   0
vdd#branch                        -6.92404e-12

 Reference value :  4.56912e-08
 Reference value :  1.05471e-07
No. of Data Rows : 60044

  Measurements for Transient Analysis

tphl                =  1.77265e-10 targ=  2.33437e-09 trig=  2.15710e-09
tplh                =  7.11817e-10 targ=  2.31831e-08 trig=  2.24713e-08
i_vdd_avg           =  -5.22163e-06 from=  5.00000e-09 to=  1.10001e-07
power_avg_uw        =  9.75035e+00


Total analysis time (seconds) = 0.483004

Total elapsed time (seconds) = 0.554 

Total DRAM available = 16384.000 MB.
DRAM currently available =  170.234 MB.
Maximum ngspice program size =   12.562 MB.
Current ngspice program size =   11.625 MB.

