
Note: No compatibility mode selected!


Circuit: NOR2 seed characterization sample 4421043

Doing analysis at TEMP = 4.171360 and TNOM = 27.000000

Using SPARSE 1.3 as Direct Linear Solver

Initial Transient Solution
--------------------------

Node                                   Voltage
----                                   -------
vdd                                    1.96991
in                                           0
out                                    1.96991
pmid                                   1.96991
vin#branch                                   0
vdd#branch                        -4.24119e-12

 Reference value :  4.47216e-08
 Reference value :  1.04270e-07
No. of Data Rows : 60041

  Measurements for Transient Analysis

tphl                =  1.41331e-10 targ=  2.35664e-09 trig=  2.21530e-09
tplh                =  4.41337e-10 targ=  2.30873e-08 trig=  2.26459e-08
i_vdd_avg           =  -5.56831e-06 from=  5.00000e-09 to=  1.10000e-07
power_avg_uw        =  1.09691e+01


Total analysis time (seconds) = 0.485984

Total elapsed time (seconds) = 0.559 

Total DRAM available = 16384.000 MB.
DRAM currently available =  175.781 MB.
Maximum ngspice program size =   12.562 MB.
Current ngspice program size =   11.688 MB.

