
Note: No compatibility mode selected!


Circuit: NOR2 seed characterization sample 4421027

Doing analysis at TEMP = -8.530010 and TNOM = 27.000000

Using SPARSE 1.3 as Direct Linear Solver

Initial Transient Solution
--------------------------

Node                                   Voltage
----                                   -------
vdd                                    1.96459
in                                           0
out                                    1.96459
pmid                                   1.96459
vin#branch                                   0
vdd#branch                        -4.04419e-12

 Reference value :  3.94613e-08
 Reference value :  9.95352e-08
No. of Data Rows : 60044

  Measurements for Transient Analysis

tphl                =  7.71537e-11 targ=  2.12923e-09 trig=  2.05208e-09
tplh                =  2.68106e-10 targ=  2.24243e-08 trig=  2.21562e-08
i_vdd_avg           =  -5.58217e-06 from=  5.00000e-09 to=  1.10001e-07
power_avg_uw        =  1.09667e+01


Total analysis time (seconds) = 0.483567

Total elapsed time (seconds) = 0.579 

Total DRAM available = 16384.000 MB.
DRAM currently available =  162.359 MB.
Maximum ngspice program size =   13.391 MB.
Current ngspice program size =   13.391 MB.

