
Note: No compatibility mode selected!


Circuit: GF180MCU library cell nor2_4 A1_to_ZN__A2=0

Doing analysis at TEMP = -16.799360 and TNOM = 27.000000

Using SPARSE 1.3 as Direct Linear Solver

Initial Transient Solution
--------------------------

Node                                   Voltage
----                                   -------
vdd                                    1.92835
a1                                           0
a2                                           0
zn                                     1.92835
xu1.net_0_0                            1.92835
xu1.net_0_1                            1.92835
xu1.net_0_2                            1.92835
xu1.net_0_3                            1.92835
vfix_a2#branch                               0
vin#branch                                   0
vdd#branch                         -1.5507e-11

 Reference value :  3.30755e-08
 Reference value :  7.24755e-08
 Reference value :  1.15673e-07
 Reference value :  1.56623e-07
 Reference value :  1.99290e-07
 Reference value :  2.43030e-07
 Reference value :  2.85508e-07
 Reference value :  3.27203e-07
No. of Data Rows : 68034

  Measurements for Transient Analysis

tphl                =  2.62821e-09 targ=  3.09647e-08 trig=  2.83365e-08
tplh                =  4.95191e-09 targ=  1.11961e-07 trig=  1.07009e-07
i_vdd_avg           =  -1.25342e-06 from=  1.00000e-08 to=  3.30003e-07
power_avg_uw        =  2.41703e+00


Total analysis time (seconds) = 4.63055

Total elapsed time (seconds) = 4.694 

Total DRAM available = 16384.000 MB.
DRAM currently available =   95.516 MB.
Maximum ngspice program size =   14.391 MB.
Current ngspice program size =   14.391 MB.

