
Note: No compatibility mode selected!


Circuit: GF180MCU library cell mux2_4 I0_to_Z__I1=0,S=0

Doing analysis at TEMP = 21.620041 and TNOM = 27.000000

Using SPARSE 1.3 as Direct Linear Solver

Initial Transient Solution
--------------------------

Node                                   Voltage
----                                   -------
vdd                                     1.9448
i0                                           0
i1                                           0
s                                            0
xu1.int04                               1.9448
z                                  1.42617e-08
xu1.net_1                          0.000350574
xu1.net_3                              1.20459
xu1.sel1_n                              1.9448
xu1.net_0                               1.9448
xu1.net_2                               1.9448
vfix_s#branch                                0
vfix_i1#branch                               0
vin#branch                                   0
vdd#branch                        -1.64438e-11

 Reference value :  3.06325e-08
 Reference value :  6.96951e-08
 Reference value :  1.10870e-07
 Reference value :  1.49953e-07
 Reference value :  1.88763e-07
 Reference value :  2.27880e-07
 Reference value :  2.65790e-07
 Reference value :  3.05183e-07
No. of Data Rows : 68034

  Measurements for Transient Analysis

tplh                =  2.55493e-09 targ=  3.07762e-08 trig=  2.82213e-08
tphl                =  4.09374e-09 targ=  1.10758e-07 trig=  1.06664e-07
i_vdd_avg           =  -4.96249e-07 from=  1.00000e-08 to=  3.30003e-07
power_avg_uw        =  9.65106e-01


Total analysis time (seconds) = 4.89485

Total elapsed time (seconds) = 4.957 

Total DRAM available = 16384.000 MB.
DRAM currently available =  107.047 MB.
Maximum ngspice program size =   16.219 MB.
Current ngspice program size =   16.219 MB.

