
Note: No compatibility mode selected!


Circuit: GF180MCU library cell nor2_1 A1_to_ZN__A2=0

Doing analysis at TEMP = 104.073130 and TNOM = 27.000000

Using SPARSE 1.3 as Direct Linear Solver

Initial Transient Solution
--------------------------

Node                                   Voltage
----                                   -------
vdd                                    1.86002
a1                                           0
a2                                           0
zn                                     1.86002
xu1.net_0                              1.86002
vfix_a2#branch                               0
vin#branch                                   0
vdd#branch                        -4.61983e-12

 Reference value :  1.07489e-07
 Reference value :  2.49209e-07
No. of Data Rows : 68030

  Measurements for Transient Analysis

tphl                =  5.23267e-09 targ=  3.32136e-08 trig=  2.79810e-08
tplh                =  1.36768e-08 targ=  1.19620e-07 trig=  1.05943e-07
i_vdd_avg           =  -1.16767e-06 from=  1.00000e-08 to=  3.30001e-07
power_avg_uw        =  2.17189e+00


Total analysis time (seconds) = 1.30819

Total elapsed time (seconds) = 1.371 

Total DRAM available = 16384.000 MB.
DRAM currently available =  130.688 MB.
Maximum ngspice program size =   14.688 MB.
Current ngspice program size =   14.688 MB.

