
Note: No compatibility mode selected!


Circuit: GF180MCU library cell nand3_4 A1_to_ZN__A2=1,A3=1

Doing analysis at TEMP = 66.667646 and TNOM = 27.000000

Using SPARSE 1.3 as Direct Linear Solver

Initial Transient Solution
--------------------------

Node                                   Voltage
----                                   -------
vdd                                    1.73993
a1                                           0
a2                                     1.73993
a3                                     1.73993
xu1.net_1_3                        3.43517e-10
xu1.net_0                          6.87035e-10
xu1.net_1_2                        3.43517e-10
xu1.net_1_1                        3.43517e-10
xu1.net_1_0                        3.43517e-10
xu1.net_0_0                        6.86846e-10
zn                                     1.73993
vfix_a3#branch                               0
vfix_a2#branch                               0
vin#branch                                   0
vdd#branch                        -7.14645e-12

 Reference value :  2.30364e-08
 Reference value :  5.40072e-08
 Reference value :  8.50172e-08
 Reference value :  1.15817e-07
 Reference value :  1.46382e-07
 Reference value :  1.80022e-07
 Reference value :  2.12157e-07
 Reference value :  2.43752e-07
 Reference value :  2.73832e-07
 Reference value :  3.06257e-07
 Reference value :  3.38157e-07
No. of Data Rows : 68032

  Measurements for Transient Analysis

tphl                =  3.81234e-09 targ=  2.82947e-08 trig=  2.44823e-08
tplh                =  4.59423e-09 targ=  1.00041e-07 trig=  9.54470e-08
i_vdd_avg           =  -2.34753e-06 from=  1.00000e-08 to=  3.30002e-07
power_avg_uw        =  4.08454e+00


Total analysis time (seconds) = 6.14723

Total elapsed time (seconds) = 6.224 

Total DRAM available = 16384.000 MB.
DRAM currently available =   90.656 MB.
Maximum ngspice program size =   17.938 MB.
Current ngspice program size =   17.938 MB.

