
Note: No compatibility mode selected!


Circuit: GF180MCU library cell nor2_1 A1_to_ZN__A2=0

Doing analysis at TEMP = 29.038006 and TNOM = 27.000000

Using SPARSE 1.3 as Direct Linear Solver

Initial Transient Solution
--------------------------

Node                                   Voltage
----                                   -------
vdd                                    1.93069
a1                                           0
a2                                           0
zn                                     1.93069
xu1.net_0                              1.93069
vfix_a2#branch                               0
vin#branch                                   0
vdd#branch                        -3.88579e-12

 Reference value :  1.10772e-07
 Reference value :  2.61832e-07
No. of Data Rows : 68032

  Measurements for Transient Analysis

tphl                =  8.27764e-09 targ=  3.72298e-08 trig=  2.89522e-08
tplh                =  2.29716e-08 targ=  1.31828e-07 trig=  1.08857e-07
i_vdd_avg           =  -2.47575e-06 from=  1.00000e-08 to=  3.30001e-07
power_avg_uw        =  4.77992e+00


Total analysis time (seconds) = 1.09563

Total elapsed time (seconds) = 1.170 

Total DRAM available = 16384.000 MB.
DRAM currently available =  115.406 MB.
Maximum ngspice program size =   13.812 MB.
Current ngspice program size =   13.812 MB.

