
Note: No compatibility mode selected!


Circuit: GF180MCU library cell aoi21_1 A1_to_ZN__A2=1,B=0

Doing analysis at TEMP = 26.214930 and TNOM = 27.000000

Using SPARSE 1.3 as Direct Linear Solver

Initial Transient Solution
--------------------------

Node                                   Voltage
----                                   -------
vdd                                    1.88289
a1                                           0
a2                                     1.88289
b                                            0
xu1.net_0                          1.09174e-11
zn                                     1.88289
xu1.net_1                              1.88289
vfix_b#branch                                0
vfix_a2#branch                               0
vin#branch                                   0
vdd#branch                         -3.7893e-12

 Reference value :  8.23031e-08
 Reference value :  1.82809e-07
 Reference value :  2.79339e-07
No. of Data Rows : 68032

  Measurements for Transient Analysis

tphl                =  7.66781e-09 targ=  3.48656e-08 trig=  2.71978e-08
tplh                =  1.94048e-08 targ=  1.22998e-07 trig=  1.03593e-07
i_vdd_avg           =  -1.97913e-06 from=  1.00000e-08 to=  3.30004e-07
power_avg_uw        =  3.72649e+00


Total analysis time (seconds) = 1.87355

Total elapsed time (seconds) = 1.961 

Total DRAM available = 16384.000 MB.
DRAM currently available =  120.109 MB.
Maximum ngspice program size =   15.656 MB.
Current ngspice program size =   15.656 MB.

