
Note: No compatibility mode selected!


Circuit: GF180MCU library cell aoi21_1 A1_to_ZN__A2=1,B=0

Doing analysis at TEMP = -34.988771 and TNOM = 27.000000

Using SPARSE 1.3 as Direct Linear Solver

Initial Transient Solution
--------------------------

Node                                   Voltage
----                                   -------
vdd                                    1.97212
a1                                           0
a2                                     1.97212
b                                            0
xu1.net_0                          7.31748e-15
zn                                     1.97212
xu1.net_1                              1.97212
vfix_b#branch                                0
vfix_a2#branch                               0
vin#branch                                   0
vdd#branch                        -3.96424e-12

 Reference value :  7.64999e-08
 Reference value :  1.78377e-07
 Reference value :  2.85772e-07
No. of Data Rows : 68030

  Measurements for Transient Analysis

tphl                =  1.58733e-09 targ=  2.96135e-08 trig=  2.80262e-08
tplh                =  3.18547e-09 targ=  1.09264e-07 trig=  1.06079e-07
i_vdd_avg           =  -1.32514e-07 from=  1.00000e-08 to=  3.30002e-07
power_avg_uw        =  2.61333e-01


Total analysis time (seconds) = 1.71421

Total elapsed time (seconds) = 1.813 

Total DRAM available = 16384.000 MB.
DRAM currently available =   96.922 MB.
Maximum ngspice program size =   16.938 MB.
Current ngspice program size =   16.938 MB.

