
Note: No compatibility mode selected!


Circuit: GF180MCU library cell nand2_4 A1_to_ZN__A2=1

Doing analysis at TEMP = -27.740410 and TNOM = 27.000000

Using SPARSE 1.3 as Direct Linear Solver

Initial Transient Solution
--------------------------

Node                                   Voltage
----                                   -------
vdd                                    1.69553
a1                                           0
a2                                     1.69553
xu1.net_0_0                        2.37096e-14
zn                                     1.69553
xu1.net_0_1                        2.36788e-14
xu1.net_0_2                        2.37096e-14
xu1.net_0_3                        2.36788e-14
vfix_a2#branch                               0
vin#branch                                   0
vdd#branch                        -6.82212e-12

 Reference value :  3.14834e-08
 Reference value :  7.82684e-08
 Reference value :  1.23634e-07
 Reference value :  1.66459e-07
 Reference value :  2.11843e-07
 Reference value :  2.58044e-07
 Reference value :  3.02434e-07
No. of Data Rows : 68032

  Measurements for Transient Analysis

tphl                =  4.04223e-10 targ=  2.46922e-08 trig=  2.42879e-08
tplh                =  5.75079e-10 targ=  9.54389e-08 trig=  9.48638e-08
i_vdd_avg           =  -2.16720e-07 from=  1.00000e-08 to=  3.30004e-07
power_avg_uw        =  3.67454e-01


Total analysis time (seconds) = 4.27346

Total elapsed time (seconds) = 4.352 

Total DRAM available = 16384.000 MB.
DRAM currently available =   83.250 MB.
Maximum ngspice program size =   16.359 MB.
Current ngspice program size =   16.359 MB.

