
Note: No compatibility mode selected!


Circuit: GF180MCU library cell inv_1 I_to_ZN

Doing analysis at TEMP = -13.835590 and TNOM = 27.000000

Using SPARSE 1.3 as Direct Linear Solver

Initial Transient Solution
--------------------------

Node                                   Voltage
----                                   -------
vdd                                     1.7335
i                                            0
zn                                      1.7335
vin#branch                                   0
vdd#branch                        -1.74352e-12

 Reference value :  2.03271e-07
No. of Data Rows : 68034

  Measurements for Transient Analysis

tphl                =  6.69325e-09 targ=  3.50750e-08 trig=  2.83817e-08
tplh                =  1.41156e-08 targ=  1.21261e-07 trig=  1.07145e-07
i_vdd_avg           =  -2.00081e-06 from=  1.00000e-08 to=  3.30004e-07
power_avg_uw        =  3.46842e+00


Total analysis time (seconds) = 0.616955

Total elapsed time (seconds) = 0.678 

Total DRAM available = 16384.000 MB.
DRAM currently available =   86.125 MB.
Maximum ngspice program size =   15.594 MB.
Current ngspice program size =   15.594 MB.

