
Note: No compatibility mode selected!


Circuit: GF180MCU library cell nand2_4 A1_to_ZN__A2=1

Doing analysis at TEMP = 88.743295 and TNOM = 27.000000

Using SPARSE 1.3 as Direct Linear Solver

Initial Transient Solution
--------------------------

Node                                   Voltage
----                                   -------
vdd                                    1.65837
a1                                           0
a2                                     1.65837
xu1.net_0_0                        1.65871e-09
zn                                     1.65837
xu1.net_0_1                        1.65871e-09
xu1.net_0_2                        1.65871e-09
xu1.net_0_3                        1.65871e-09
vfix_a2#branch                               0
vin#branch                                   0
vdd#branch                        -7.29716e-12

 Reference value :  3.39398e-08
 Reference value :  7.78448e-08
 Reference value :  1.24097e-07
 Reference value :  1.70852e-07
 Reference value :  2.13110e-07
 Reference value :  2.57685e-07
 Reference value :  3.03397e-07
No. of Data Rows : 68030

  Measurements for Transient Analysis

tphl                =  4.30327e-09 targ=  3.26494e-08 trig=  2.83462e-08
tplh                =  5.96348e-09 targ=  1.13002e-07 trig=  1.07038e-07
i_vdd_avg           =  -1.67200e-06 from=  1.00000e-08 to=  3.30002e-07
power_avg_uw        =  2.77280e+00


Total analysis time (seconds) = 4.24275

Total elapsed time (seconds) = 4.308 

Total DRAM available = 16384.000 MB.
DRAM currently available =  119.516 MB.
Maximum ngspice program size =   13.688 MB.
Current ngspice program size =   13.688 MB.

