
Note: No compatibility mode selected!


Circuit: GF180MCU library cell nor2_4 A1_to_ZN__A2=0

Doing analysis at TEMP = 17.564917 and TNOM = 27.000000

Using SPARSE 1.3 as Direct Linear Solver

Initial Transient Solution
--------------------------

Node                                   Voltage
----                                   -------
vdd                                    1.71602
a1                                           0
a2                                           0
zn                                     1.71602
xu1.net_0_0                            1.71602
xu1.net_0_1                            1.71602
xu1.net_0_2                            1.71602
xu1.net_0_3                            1.71602
vfix_a2#branch                               0
vin#branch                                   0
vdd#branch                        -1.38138e-11

 Reference value :  3.53203e-08
 Reference value :  7.93753e-08
 Reference value :  1.23008e-07
 Reference value :  1.65018e-07
 Reference value :  2.05555e-07
 Reference value :  2.52455e-07
 Reference value :  2.96268e-07
No. of Data Rows : 68034

  Measurements for Transient Analysis

tphl                =  3.15674e-09 targ=  3.07006e-08 trig=  2.75439e-08
tplh                =  6.80124e-09 targ=  1.11433e-07 trig=  1.04632e-07
i_vdd_avg           =  -1.45460e-06 from=  1.00000e-08 to=  3.30003e-07
power_avg_uw        =  2.49613e+00


Total analysis time (seconds) = 4.42376

Total elapsed time (seconds) = 4.491 

Total DRAM available = 16384.000 MB.
DRAM currently available =   80.141 MB.
Maximum ngspice program size =   13.422 MB.
Current ngspice program size =   13.422 MB.

