
Note: No compatibility mode selected!


Circuit: GF180MCU library cell xor2_4 A1_to_Z__A2=0

Doing analysis at TEMP = 46.899919 and TNOM = 27.000000

Using SPARSE 1.3 as Direct Linear Solver

Initial Transient Solution
--------------------------

Node                                   Voltage
----                                   -------
vdd                                     1.6428
a1                                           0
a2                                           0
xu1.net_2                            0.0125203
xu1.i                                   1.6428
xu1.net_0                          1.53677e-10
xu1.z_neg                               1.6428
z                                  1.67612e-08
xu1.net_1                               1.6428
vfix_a2#branch                               0
vin#branch                                   0
vdd#branch                        -1.18841e-11

 Reference value :  2.91925e-08
 Reference value :  6.96303e-08
 Reference value :  1.10000e-07
 Reference value :  1.52418e-07
 Reference value :  1.93100e-07
 Reference value :  2.34175e-07
 Reference value :  2.75698e-07
 Reference value :  3.17693e-07
No. of Data Rows : 68034

  Measurements for Transient Analysis

tplh                =  3.65888e-09 targ=  3.19528e-08 trig=  2.82939e-08
tphl                =  5.84174e-09 targ=  1.12723e-07 trig=  1.06882e-07
i_vdd_avg           =  -3.74981e-07 from=  1.00000e-08 to=  3.30003e-07
power_avg_uw        =  6.16018e-01


Total analysis time (seconds) = 4.55008

Total elapsed time (seconds) = 4.612 

Total DRAM available = 16384.000 MB.
DRAM currently available =   93.156 MB.
Maximum ngspice program size =   14.828 MB.
Current ngspice program size =   14.828 MB.

