
Note: No compatibility mode selected!


Circuit: GF180MCU library cell nand3_4 A1_to_ZN__A2=1,A3=1

Doing analysis at TEMP = 74.439619 and TNOM = 27.000000

Using SPARSE 1.3 as Direct Linear Solver

Initial Transient Solution
--------------------------

Node                                   Voltage
----                                   -------
vdd                                    1.93329
a1                                           0
a2                                     1.93329
a3                                     1.93329
xu1.net_1_3                        5.57556e-10
xu1.net_0                          1.11511e-09
xu1.net_1_2                        5.57556e-10
xu1.net_1_1                        5.57556e-10
xu1.net_1_0                        5.57556e-10
xu1.net_0_0                        1.11511e-09
zn                                     1.93329
vfix_a3#branch                               0
vfix_a2#branch                               0
vin#branch                                   0
vdd#branch                        -8.04508e-12

 Reference value :  2.42975e-08
 Reference value :  5.42998e-08
 Reference value :  8.38448e-08
 Reference value :  1.12670e-07
 Reference value :  1.42172e-07
 Reference value :  1.71917e-07
 Reference value :  2.03940e-07
 Reference value :  2.36550e-07
 Reference value :  2.67735e-07
 Reference value :  2.97382e-07
 Reference value :  3.28542e-07
No. of Data Rows : 68030

  Measurements for Transient Analysis

tphl                =  3.13299e-09 targ=  3.21966e-08 trig=  2.90637e-08
tplh                =  4.41670e-09 targ=  1.13608e-07 trig=  1.09191e-07
i_vdd_avg           =  -1.13117e-06 from=  1.00000e-08 to=  3.30002e-07
power_avg_uw        =  2.18689e+00


Total analysis time (seconds) = 6.29572

Total elapsed time (seconds) = 6.360 

Total DRAM available = 16384.000 MB.
DRAM currently available =   78.578 MB.
Maximum ngspice program size =   13.016 MB.
Current ngspice program size =   13.016 MB.

