
Note: No compatibility mode selected!


Circuit: GF180MCU library cell inv_4 I_to_ZN

Doing analysis at TEMP = -17.898406 and TNOM = 27.000000

Using SPARSE 1.3 as Direct Linear Solver

Initial Transient Solution
--------------------------

Node                                   Voltage
----                                   -------
vdd                                    1.89474
i                                            0
zn                                     1.89474
vin#branch                                   0
vdd#branch                        -7.61901e-12

 Reference value :  6.59236e-08
 Reference value :  1.51755e-07
 Reference value :  2.38889e-07
 Reference value :  3.24830e-07
No. of Data Rows : 68032

  Measurements for Transient Analysis

tphl                =  1.79784e-09 targ=  2.80559e-08 trig=  2.62581e-08
tplh                =  2.93738e-09 targ=  1.03712e-07 trig=  1.00774e-07
i_vdd_avg           =  -1.49026e-06 from=  1.00000e-08 to=  3.30005e-07
power_avg_uw        =  2.82365e+00


Total analysis time (seconds) = 2.0578

Total elapsed time (seconds) = 2.120 

Total DRAM available = 16384.000 MB.
DRAM currently available =  105.172 MB.
Maximum ngspice program size =   13.953 MB.
Current ngspice program size =   13.953 MB.

