
Note: No compatibility mode selected!


Circuit: GF180MCU library cell inv_1 I_to_ZN

Doing analysis at TEMP = 91.165893 and TNOM = 27.000000

Using SPARSE 1.3 as Direct Linear Solver

Initial Transient Solution
--------------------------

Node                                   Voltage
----                                   -------
vdd                                     1.8076
i                                            0
zn                                      1.8076
vin#branch                                   0
vdd#branch                        -2.01002e-12

 Reference value :  1.86308e-07
No. of Data Rows : 68030

  Measurements for Transient Analysis

tphl                =  4.45919e-09 targ=  3.17577e-08 trig=  2.72985e-08
tplh                =  8.76003e-09 targ=  1.12656e-07 trig=  1.03896e-07
i_vdd_avg           =  -1.31824e-06 from=  1.00000e-08 to=  3.30002e-07
power_avg_uw        =  2.38284e+00


Total analysis time (seconds) = 0.667629

Total elapsed time (seconds) = 0.731 

Total DRAM available = 16384.000 MB.
DRAM currently available =   91.781 MB.
Maximum ngspice program size =   15.484 MB.
Current ngspice program size =   15.484 MB.

