
Note: No compatibility mode selected!


Circuit: GF180MCU library cell xor2_1 A1_to_Z__A2=0

Doing analysis at TEMP = 89.417691 and TNOM = 27.000000

Using SPARSE 1.3 as Direct Linear Solver

Initial Transient Solution
--------------------------

Node                                   Voltage
----                                   -------
vdd                                    1.94945
a1                                           0
a2                                           0
xu1.i                                  1.94945
z                                  6.28169e-08
xu1.net_0                           1.9418e-08
xu1.net_2                              1.94945
xu1.net_1                             0.781183
vfix_a2#branch                               0
vin#branch                                   0
vdd#branch                        -1.34438e-11

 Reference value :  5.47444e-08
 Reference value :  1.23636e-07
 Reference value :  1.93599e-07
 Reference value :  2.61501e-07
 Reference value :  3.30216e-07
No. of Data Rows : 68030

  Measurements for Transient Analysis

tplh                =  1.20095e-08 targ=  3.76655e-08 trig=  2.56559e-08
tphl                =  4.49417e-09 targ=  1.03462e-07 trig=  9.89678e-08
i_vdd_avg           =  -1.39793e-06 from=  1.00000e-08 to=  3.30001e-07
power_avg_uw        =  2.72520e+00


Total analysis time (seconds) = 2.54816

Total elapsed time (seconds) = 2.610 

Total DRAM available = 16384.000 MB.
DRAM currently available =   91.781 MB.
Maximum ngspice program size =   15.109 MB.
Current ngspice program size =   15.109 MB.

