
Note: No compatibility mode selected!


Circuit: GF180MCU library cell aoi21_4 A1_to_ZN__A2=1,B=0

Doing analysis at TEMP = 16.884005 and TNOM = 27.000000

Using SPARSE 1.3 as Direct Linear Solver

Initial Transient Solution
--------------------------

Node                                   Voltage
----                                   -------
vdd                                    1.85105
a1                                           0
a2                                     1.85105
b                                            0
xu1.net_0_0                        4.43674e-12
zn                                     1.85105
xu1.net_0_1                         4.4366e-12
xu1.net_0_2                        4.43674e-12
xu1.net_0_3                         4.4366e-12
xu1.net_1                              1.85105
vfix_b#branch                                0
vfix_a2#branch                               0
vin#branch                                   0
vdd#branch                        -1.48942e-11

 Reference value :  2.42325e-08
 Reference value :  5.38662e-08
 Reference value :  8.42962e-08
 Reference value :  1.15825e-07
 Reference value :  1.44885e-07
 Reference value :  1.75645e-07
 Reference value :  2.06276e-07
 Reference value :  2.36286e-07
 Reference value :  2.66576e-07
 Reference value :  2.97705e-07
 Reference value :  3.25100e-07
No. of Data Rows : 68034

  Measurements for Transient Analysis

tphl                =  2.13759e-09 targ=  2.96344e-08 trig=  2.74968e-08
tplh                =  3.95919e-09 targ=  1.08450e-07 trig=  1.04491e-07
i_vdd_avg           =  -7.92145e-07 from=  1.00000e-08 to=  3.30005e-07
power_avg_uw        =  1.46630e+00


Total analysis time (seconds) = 6.37069

Total elapsed time (seconds) = 6.435 

Total DRAM available = 16384.000 MB.
DRAM currently available =   90.938 MB.
Maximum ngspice program size =   12.844 MB.
Current ngspice program size =   12.844 MB.

