
Note: No compatibility mode selected!


Circuit: GF180MCU library cell aoi21_1 A1_to_ZN__A2=1,B=0

Doing analysis at TEMP = 4.467101 and TNOM = 27.000000

Using SPARSE 1.3 as Direct Linear Solver

Initial Transient Solution
--------------------------

Node                                   Voltage
----                                   -------
vdd                                    1.66845
a1                                           0
a2                                     1.66845
b                                            0
xu1.net_0                           1.3126e-12
zn                                     1.66845
xu1.net_1                              1.66845
vfix_b#branch                                0
vfix_a2#branch                               0
vin#branch                                   0
vdd#branch                         -3.3573e-12

 Reference value :  7.39561e-08
 Reference value :  1.82260e-07
 Reference value :  2.85110e-07
No. of Data Rows : 68034

  Measurements for Transient Analysis

tphl                =  8.79623e-09 targ=  3.85680e-08 trig=  2.97718e-08
tplh                =  2.18496e-08 targ=  1.33165e-07 trig=  1.11315e-07
i_vdd_avg           =  -1.27701e-06 from=  1.00000e-08 to=  3.30005e-07
power_avg_uw        =  2.13064e+00


Total analysis time (seconds) = 1.81429

Total elapsed time (seconds) = 1.875 

Total DRAM available = 16384.000 MB.
DRAM currently available =  103.406 MB.
Maximum ngspice program size =   14.203 MB.
Current ngspice program size =   14.203 MB.

