
Note: No compatibility mode selected!


Circuit: GF180MCU library cell xor2_1 A1_to_Z__A2=0

Doing analysis at TEMP = 54.999568 and TNOM = 27.000000

Using SPARSE 1.3 as Direct Linear Solver

Initial Transient Solution
--------------------------

Node                                   Voltage
----                                   -------
vdd                                    1.62531
a1                                           0
a2                                           0
xu1.i                                  1.62531
z                                  5.97754e-08
xu1.net_0                           3.8215e-09
xu1.net_2                              1.62531
xu1.net_1                             0.752293
vfix_a2#branch                               0
vin#branch                                   0
vdd#branch                        -9.38434e-12

 Reference value :  5.24493e-08
 Reference value :  1.16024e-07
 Reference value :  1.81526e-07
 Reference value :  2.45479e-07
 Reference value :  3.16066e-07
No. of Data Rows : 68030

  Measurements for Transient Analysis

tplh                =  1.05104e-08 targ=  4.02012e-08 trig=  2.96909e-08
tphl                =  6.79018e-09 targ=  1.17863e-07 trig=  1.11073e-07
i_vdd_avg           =  -5.85588e-07 from=  1.00000e-08 to=  3.30001e-07
power_avg_uw        =  9.51764e-01


Total analysis time (seconds) = 2.95395

Total elapsed time (seconds) = 3.019 

Total DRAM available = 16384.000 MB.
DRAM currently available =  119.719 MB.
Maximum ngspice program size =   13.875 MB.
Current ngspice program size =   13.875 MB.

