
Note: No compatibility mode selected!


Circuit: GF180MCU library cell mux2_1 I0_to_Z__I1=0,S=0

Doing analysis at TEMP = 90.842495 and TNOM = 27.000000

Using SPARSE 1.3 as Direct Linear Solver

Initial Transient Solution
--------------------------

Node                                   Voltage
----                                   -------
vdd                                    1.63042
i0                                           0
i1                                           0
s                                            0
xu1.int04                              1.63042
z                                  1.87476e-08
xu1.net_1                            0.0340584
xu1.net_3                              1.16014
xu1.sel1_n                             1.63042
xu1.net_0                              1.63042
xu1.net_2                              1.63042
vfix_s#branch                                0
vfix_i1#branch                               0
vin#branch                                   0
vdd#branch                        -1.11114e-11

 Reference value :  4.18820e-08
 Reference value :  9.90920e-08
 Reference value :  1.56426e-07
 Reference value :  2.10302e-07
 Reference value :  2.69977e-07
 Reference value :  3.33556e-07
No. of Data Rows : 68032

  Measurements for Transient Analysis

tplh                =  6.75783e-09 targ=  3.54501e-08 trig=  2.86922e-08
tphl                =  6.70129e-09 targ=  1.14778e-07 trig=  1.08077e-07
i_vdd_avg           =  -6.81576e-07 from=  1.00000e-08 to=  3.30001e-07
power_avg_uw        =  1.11125e+00


Total analysis time (seconds) = 3.15361

Total elapsed time (seconds) = 3.234 

Total DRAM available = 16384.000 MB.
DRAM currently available =  135.188 MB.
Maximum ngspice program size =   17.016 MB.
Current ngspice program size =   17.016 MB.

