
Note: No compatibility mode selected!


Circuit: GF180MCU library cell xor2_1 A1_to_Z__A2=0

Doing analysis at TEMP = 37.404469 and TNOM = 27.000000

Using SPARSE 1.3 as Direct Linear Solver

Initial Transient Solution
--------------------------

Node                                   Voltage
----                                   -------
vdd                                    1.83924
a1                                           0
a2                                           0
xu1.i                                  1.83924
z                                  5.33867e-08
xu1.net_0                          9.00266e-10
xu1.net_2                              1.83924
xu1.net_1                             0.841098
vfix_a2#branch                               0
vin#branch                                   0
vdd#branch                        -1.04721e-11

 Reference value :  4.89736e-08
 Reference value :  1.16380e-07
 Reference value :  1.86098e-07
 Reference value :  2.52764e-07
 Reference value :  3.17435e-07
No. of Data Rows : 68032

  Measurements for Transient Analysis

tplh                =  1.16269e-08 targ=  3.78724e-08 trig=  2.62455e-08
tphl                =  4.73696e-09 targ=  1.05474e-07 trig=  1.00737e-07
i_vdd_avg           =  -1.14284e-06 from=  1.00000e-08 to=  3.30005e-07
power_avg_uw        =  2.10195e+00


Total analysis time (seconds) = 2.98909

Total elapsed time (seconds) = 3.051 

Total DRAM available = 16384.000 MB.
DRAM currently available =   95.203 MB.
Maximum ngspice program size =   15.141 MB.
Current ngspice program size =   15.141 MB.

