
Note: No compatibility mode selected!


Circuit: GF180MCU library cell xor2_4 A1_to_Z__A2=0

Doing analysis at TEMP = 103.307840 and TNOM = 27.000000

Using SPARSE 1.3 as Direct Linear Solver

Initial Transient Solution
--------------------------

Node                                   Voltage
----                                   -------
vdd                                    1.82834
a1                                           0
a2                                           0
xu1.net_2                            0.0391489
xu1.i                                  1.82834
xu1.net_0                          7.66437e-09
xu1.z_neg                              1.82834
z                                  1.83141e-08
xu1.net_1                              1.82834
vfix_a2#branch                               0
vin#branch                                   0
vdd#branch                        -1.46646e-11

 Reference value :  3.20208e-08
 Reference value :  6.82058e-08
 Reference value :  1.07804e-07
 Reference value :  1.45644e-07
 Reference value :  1.85763e-07
 Reference value :  2.24296e-07
 Reference value :  2.62036e-07
 Reference value :  3.02184e-07
No. of Data Rows : 68034

  Measurements for Transient Analysis

tplh                =  3.65079e-09 targ=  3.02849e-08 trig=  2.66341e-08
tphl                =  4.69321e-09 targ=  1.06596e-07 trig=  1.01902e-07
i_vdd_avg           =  -1.37915e-06 from=  1.00000e-08 to=  3.30004e-07
power_avg_uw        =  2.52155e+00


Total analysis time (seconds) = 5.11182

Total elapsed time (seconds) = 5.174 

Total DRAM available = 16384.000 MB.
DRAM currently available =  130.688 MB.
Maximum ngspice program size =   12.641 MB.
Current ngspice program size =   12.641 MB.

