
Note: No compatibility mode selected!


Circuit: GF180MCU library cell xor2_4 A1_to_Z__A2=0

Doing analysis at TEMP = 74.788110 and TNOM = 27.000000

Using SPARSE 1.3 as Direct Linear Solver

Initial Transient Solution
--------------------------

Node                                   Voltage
----                                   -------
vdd                                    1.77073
a1                                           0
a2                                           0
xu1.net_2                            0.0287429
xu1.i                                  1.77073
xu1.net_0                          1.21766e-09
xu1.z_neg                              1.77073
z                                  1.72567e-08
xu1.net_1                              1.77073
vfix_a2#branch                               0
vin#branch                                   0
vdd#branch                        -1.30528e-11

 Reference value :  3.07975e-08
 Reference value :  7.15084e-08
 Reference value :  1.07588e-07
 Reference value :  1.48844e-07
 Reference value :  1.90703e-07
 Reference value :  2.30933e-07
 Reference value :  2.71163e-07
 Reference value :  3.10534e-07
No. of Data Rows : 68032

  Measurements for Transient Analysis

tplh                =  4.11194e-09 targ=  3.38849e-08 trig=  2.97729e-08
tphl                =  6.33482e-09 targ=  1.17654e-07 trig=  1.11319e-07
i_vdd_avg           =  -8.40853e-07 from=  1.00000e-08 to=  3.30004e-07
power_avg_uw        =  1.48892e+00


Total analysis time (seconds) = 3.67143

Total elapsed time (seconds) = 3.736 

Total DRAM available = 16384.000 MB.
DRAM currently available =  189.297 MB.
Maximum ngspice program size =   12.891 MB.
Current ngspice program size =   12.891 MB.

