
Note: No compatibility mode selected!


Circuit: GF180MCU library cell aoi21_4 A1_to_ZN__A2=1,B=0

Doing analysis at TEMP = 44.984216 and TNOM = 27.000000

Using SPARSE 1.3 as Direct Linear Solver

Initial Transient Solution
--------------------------

Node                                   Voltage
----                                   -------
vdd                                    1.75676
a1                                           0
a2                                     1.75676
b                                            0
xu1.net_0_0                        6.16447e-11
zn                                     1.75676
xu1.net_0_1                        6.16448e-11
xu1.net_0_2                        6.16447e-11
xu1.net_0_3                        6.16448e-11
xu1.net_1                              1.75676
vfix_b#branch                                0
vfix_a2#branch                               0
vin#branch                                   0
vdd#branch                        -1.42001e-11

 Reference value :  2.10564e-08
 Reference value :  5.22964e-08
 Reference value :  8.29364e-08
 Reference value :  1.12430e-07
 Reference value :  1.41675e-07
 Reference value :  1.73185e-07
 Reference value :  2.01646e-07
 Reference value :  2.32011e-07
 Reference value :  2.63175e-07
 Reference value :  2.94645e-07
 Reference value :  3.23820e-07
No. of Data Rows : 68032

  Measurements for Transient Analysis

tphl                =  6.47917e-10 targ=  2.49299e-08 trig=  2.42820e-08
tplh                =  1.63824e-09 targ=  9.64841e-08 trig=  9.48459e-08
i_vdd_avg           =  -4.84244e-07 from=  1.00000e-08 to=  3.30000e-07
power_avg_uw        =  8.50702e-01


Total analysis time (seconds) = 6.48429

Total elapsed time (seconds) = 6.557 

Total DRAM available = 16384.000 MB.
DRAM currently available =  120.109 MB.
Maximum ngspice program size =   16.406 MB.
Current ngspice program size =   16.406 MB.

