
Note: No compatibility mode selected!


Circuit: GF180MCU library cell mux2_1 I0_to_Z__I1=0,S=0

Doing analysis at TEMP = 59.302583 and TNOM = 27.000000

Using SPARSE 1.3 as Direct Linear Solver

Initial Transient Solution
--------------------------

Node                                   Voltage
----                                   -------
vdd                                    1.70017
i0                                           0
i1                                           0
s                                            0
xu1.int04                              1.70017
z                                  1.69451e-08
xu1.net_1                            0.0198564
xu1.net_3                              1.17138
xu1.sel1_n                             1.70017
xu1.net_0                              1.70017
xu1.net_2                              1.70017
vfix_s#branch                                0
vfix_i1#branch                               0
vin#branch                                   0
vdd#branch                        -9.61813e-12

 Reference value :  3.77432e-08
 Reference value :  9.45432e-08
 Reference value :  1.52059e-07
 Reference value :  2.03888e-07
 Reference value :  2.60194e-07
 Reference value :  3.14694e-07
No. of Data Rows : 68032

  Measurements for Transient Analysis

tplh                =  1.47800e-08 targ=  3.97153e-08 trig=  2.49353e-08
tphl                =  7.85883e-09 targ=  1.04665e-07 trig=  9.68060e-08
i_vdd_avg           =  -2.22958e-06 from=  1.00000e-08 to=  3.30004e-07
power_avg_uw        =  3.79066e+00


Total analysis time (seconds) = 3.51426

Total elapsed time (seconds) = 3.601 

Total DRAM available = 16384.000 MB.
DRAM currently available =  130.688 MB.
Maximum ngspice program size =   12.969 MB.
Current ngspice program size =   12.969 MB.

