
Note: No compatibility mode selected!


Circuit: GF180MCU library cell oai21_1 A1_to_ZN__A2=0,B=1

Doing analysis at TEMP = -11.618076 and TNOM = 27.000000

Using SPARSE 1.3 as Direct Linear Solver

Initial Transient Solution
--------------------------

Node                                   Voltage
----                                   -------
vdd                                    1.79564
a1                                           0
a2                                           0
b                                      1.79564
zn                                     1.79564
xu1.net_0                          3.76117e-13
xu1.net_1                              1.79564
vfix_b#branch                                0
vfix_a2#branch                               0
vin#branch                                   0
vdd#branch                        -3.61134e-12

 Reference value :  8.69997e-08
 Reference value :  1.84903e-07
 Reference value :  2.90562e-07
No. of Data Rows : 68030

  Measurements for Transient Analysis

tphl                =  9.96048e-09 targ=  3.85016e-08 trig=  2.85411e-08
tplh                =  2.56904e-08 targ=  1.33314e-07 trig=  1.07623e-07
i_vdd_avg           =  -2.23907e-06 from=  1.00000e-08 to=  3.30002e-07
power_avg_uw        =  4.02058e+00


Total analysis time (seconds) = 1.73856

Total elapsed time (seconds) = 1.799 

Total DRAM available = 16384.000 MB.
DRAM currently available =  130.047 MB.
Maximum ngspice program size =   15.438 MB.
Current ngspice program size =   15.438 MB.

