
Note: No compatibility mode selected!


Circuit: GF180MCU library cell xor2_4 A1_to_Z__A2=0

Doing analysis at TEMP = 31.670589 and TNOM = 27.000000

Using SPARSE 1.3 as Direct Linear Solver

Initial Transient Solution
--------------------------

Node                                   Voltage
----                                   -------
vdd                                    1.89097
a1                                           0
a2                                           0
xu1.net_2                            0.0061232
xu1.i                                  1.89097
xu1.net_0                          3.61947e-11
xu1.z_neg                              1.89097
z                                  1.48806e-08
xu1.net_1                              1.89097
vfix_a2#branch                               0
vin#branch                                   0
vdd#branch                        -1.36453e-11

 Reference value :  2.87759e-08
 Reference value :  6.80459e-08
 Reference value :  1.07044e-07
 Reference value :  1.46809e-07
 Reference value :  1.86666e-07
 Reference value :  2.26721e-07
 Reference value :  2.66034e-07
 Reference value :  3.05539e-07
No. of Data Rows : 68034

  Measurements for Transient Analysis

tplh                =  3.40741e-09 targ=  2.78216e-08 trig=  2.44142e-08
tphl                =  3.57361e-09 targ=  9.88162e-08 trig=  9.52426e-08
i_vdd_avg           =  -2.40380e-06 from=  1.00000e-08 to=  3.30004e-07
power_avg_uw        =  4.54551e+00


Total analysis time (seconds) = 4.83267

Total elapsed time (seconds) = 4.898 

Total DRAM available = 16384.000 MB.
DRAM currently available =   94.906 MB.
Maximum ngspice program size =   14.781 MB.
Current ngspice program size =   14.781 MB.

