
Note: No compatibility mode selected!


Circuit: GF180MCU library cell aoi21_1 A1_to_ZN__A2=1,B=0

Doing analysis at TEMP = 70.540306 and TNOM = 27.000000

Using SPARSE 1.3 as Direct Linear Solver

Initial Transient Solution
--------------------------

Node                                   Voltage
----                                   -------
vdd                                    1.77573
a1                                           0
a2                                     1.77573
b                                            0
xu1.net_0                          4.48478e-10
zn                                     1.77573
xu1.net_1                              1.77573
vfix_b#branch                                0
vfix_a2#branch                               0
vin#branch                                   0
vdd#branch                        -3.68211e-12

 Reference value :  8.41111e-08
 Reference value :  1.88846e-07
 Reference value :  2.93950e-07
No. of Data Rows : 68034

  Measurements for Transient Analysis

tphl                =  2.97409e-09 targ=  2.76834e-08 trig=  2.47093e-08
tplh                =  8.05044e-09 targ=  1.04178e-07 trig=  9.61279e-08
i_vdd_avg           =  -6.65194e-07 from=  1.00000e-08 to=  3.30005e-07
power_avg_uw        =  1.18120e+00


Total analysis time (seconds) = 1.60929

Total elapsed time (seconds) = 1.673 

Total DRAM available = 16384.000 MB.
DRAM currently available =   91.781 MB.
Maximum ngspice program size =   12.812 MB.
Current ngspice program size =   12.812 MB.

