
Note: No compatibility mode selected!


Circuit: GF180MCU library cell nand2_4 A1_to_ZN__A2=1

Doing analysis at TEMP = 4.894435 and TNOM = 27.000000

Using SPARSE 1.3 as Direct Linear Solver

Initial Transient Solution
--------------------------

Node                                   Voltage
----                                   -------
vdd                                    1.83532
a1                                           0
a2                                     1.83532
xu1.net_0_0                        1.26477e-12
zn                                     1.83532
xu1.net_0_1                        1.26477e-12
xu1.net_0_2                        1.26477e-12
xu1.net_0_3                        1.26477e-12
vfix_a2#branch                               0
vin#branch                                   0
vdd#branch                        -7.38199e-12

 Reference value :  3.56111e-08
 Reference value :  8.03811e-08
 Reference value :  1.21940e-07
 Reference value :  1.64950e-07
 Reference value :  2.11496e-07
 Reference value :  2.55996e-07
 Reference value :  3.01735e-07
No. of Data Rows : 68034

  Measurements for Transient Analysis

tphl                =  2.03483e-09 targ=  2.74391e-08 trig=  2.54043e-08
tplh                =  2.91532e-09 targ=  1.01128e-07 trig=  9.82129e-08
i_vdd_avg           =  -1.61626e-06 from=  1.00000e-08 to=  3.30005e-07
power_avg_uw        =  2.96635e+00


Total analysis time (seconds) = 4.12986

Total elapsed time (seconds) = 4.191 

Total DRAM available = 16384.000 MB.
DRAM currently available =  130.062 MB.
Maximum ngspice program size =   13.688 MB.
Current ngspice program size =   13.688 MB.

