
Note: No compatibility mode selected!


Circuit: GF180MCU library cell mux2_1 I0_to_Z__I1=0,S=0

Doing analysis at TEMP = 9.474926 and TNOM = 27.000000

Using SPARSE 1.3 as Direct Linear Solver

Initial Transient Solution
--------------------------

Node                                   Voltage
----                                   -------
vdd                                    1.82513
i0                                           0
i1                                           0
s                                            0
xu1.int04                              1.82513
z                                  1.41657e-08
xu1.net_1                           0.00111454
xu1.net_3                              1.18957
xu1.sel1_n                             1.82513
xu1.net_0                              1.82513
xu1.net_2                              1.82513
vfix_s#branch                                0
vfix_i1#branch                               0
vin#branch                                   0
vdd#branch                        -9.82368e-12

 Reference value :  4.24563e-08
 Reference value :  1.01201e-07
 Reference value :  1.57470e-07
 Reference value :  2.16186e-07
 Reference value :  2.72745e-07
 Reference value :  3.31095e-07
No. of Data Rows : 68032

  Measurements for Transient Analysis

tplh                =  1.02731e-08 targ=  3.72875e-08 trig=  2.70144e-08
tphl                =  6.73659e-09 targ=  1.09780e-07 trig=  1.03043e-07
i_vdd_avg           =  -1.95084e-06 from=  1.00000e-08 to=  3.30000e-07
power_avg_uw        =  3.56053e+00


Total analysis time (seconds) = 3.18623

Total elapsed time (seconds) = 3.246 

Total DRAM available = 16384.000 MB.
DRAM currently available =   80.719 MB.
Maximum ngspice program size =   14.688 MB.
Current ngspice program size =   14.688 MB.

