
Note: No compatibility mode selected!


Circuit: GF180MCU library cell mux2_1 I0_to_Z__I1=0,S=0

Doing analysis at TEMP = 27.354198 and TNOM = 27.000000

Using SPARSE 1.3 as Direct Linear Solver

Initial Transient Solution
--------------------------

Node                                   Voltage
----                                   -------
vdd                                    1.79414
i0                                           0
i1                                           0
s                                            0
xu1.int04                              1.79414
z                                  1.50808e-08
xu1.net_1                           0.00447585
xu1.net_3                              1.19438
xu1.sel1_n                             1.79414
xu1.net_0                              1.79414
xu1.net_2                              1.79414
vfix_s#branch                                0
vfix_i1#branch                               0
vin#branch                                   0
vdd#branch                        -9.73793e-12

 Reference value :  4.50962e-08
 Reference value :  1.03686e-07
 Reference value :  1.62225e-07
 Reference value :  2.18461e-07
 Reference value :  2.73326e-07
 Reference value :  3.31740e-07
No. of Data Rows : 68034

  Measurements for Transient Analysis

tplh                =  2.65957e-09 targ=  3.17289e-08 trig=  2.90694e-08
tphl                =  4.61627e-09 targ=  1.13824e-07 trig=  1.09208e-07
i_vdd_avg           =  -2.23525e-07 from=  1.00000e-08 to=  3.30005e-07
power_avg_uw        =  4.01036e-01


Total analysis time (seconds) = 3.18323

Total elapsed time (seconds) = 3.249 

Total DRAM available = 16384.000 MB.
DRAM currently available =  128.391 MB.
Maximum ngspice program size =   15.188 MB.
Current ngspice program size =   15.188 MB.

