
Note: No compatibility mode selected!


Circuit: GF180MCU library cell nor2_4 A1_to_ZN__A2=0

Doing analysis at TEMP = 118.871250 and TNOM = 27.000000

Using SPARSE 1.3 as Direct Linear Solver

Initial Transient Solution
--------------------------

Node                                   Voltage
----                                   -------
vdd                                    1.89872
a1                                           0
a2                                           0
zn                                     1.89872
xu1.net_0_0                            1.89872
xu1.net_0_1                            1.89872
xu1.net_0_2                            1.89872
xu1.net_0_3                            1.89872
vfix_a2#branch                               0
vin#branch                                   0
vdd#branch                        -2.32889e-11

 Reference value :  3.68724e-08
 Reference value :  8.02224e-08
 Reference value :  1.20972e-07
 Reference value :  1.66392e-07
 Reference value :  2.08912e-07
 Reference value :  2.52597e-07
 Reference value :  2.98147e-07
No. of Data Rows : 68032

  Measurements for Transient Analysis

tphl                =  2.52279e-09 targ=  2.84052e-08 trig=  2.58825e-08
tplh                =  6.52844e-09 targ=  1.06176e-07 trig=  9.96474e-08
i_vdd_avg           =  -2.37992e-06 from=  1.00000e-08 to=  3.30002e-07
power_avg_uw        =  4.51879e+00


Total analysis time (seconds) = 4.27774

Total elapsed time (seconds) = 4.345 

Total DRAM available = 16384.000 MB.
DRAM currently available =  100.375 MB.
Maximum ngspice program size =   16.047 MB.
Current ngspice program size =   16.047 MB.

