
Note: No compatibility mode selected!


Circuit: GF180MCU library cell xor2_1 A1_to_Z__A2=0

Doing analysis at TEMP = -20.796671 and TNOM = 27.000000

Using SPARSE 1.3 as Direct Linear Solver

Initial Transient Solution
--------------------------

Node                                   Voltage
----                                   -------
vdd                                    1.87251
a1                                           0
a2                                           0
xu1.i                                  1.87251
z                                  4.21918e-08
xu1.net_0                           1.5206e-12
xu1.net_2                              1.87251
xu1.net_1                             0.952483
vfix_a2#branch                               0
vin#branch                                   0
vdd#branch                        -1.02984e-11

 Reference value :  5.41029e-08
 Reference value :  1.22848e-07
 Reference value :  1.93993e-07
 Reference value :  2.62418e-07
 Reference value :  3.32008e-07
No. of Data Rows : 68032

  Measurements for Transient Analysis

tplh                =  2.08326e-08 targ=  4.85927e-08 trig=  2.77602e-08
tphl                =  7.11282e-09 targ=  1.12393e-07 trig=  1.05281e-07
i_vdd_avg           =  -2.39544e-06 from=  1.00000e-08 to=  3.30003e-07
power_avg_uw        =  4.48548e+00


Total analysis time (seconds) = 2.64318

Total elapsed time (seconds) = 2.703 

Total DRAM available = 16384.000 MB.
DRAM currently available =   92.891 MB.
Maximum ngspice program size =   14.531 MB.
Current ngspice program size =   14.531 MB.

