
Note: No compatibility mode selected!


Circuit: GF180MCU library cell inv_4 I_to_ZN

Doing analysis at TEMP = 30.499346 and TNOM = 27.000000

Using SPARSE 1.3 as Direct Linear Solver

Initial Transient Solution
--------------------------

Node                                   Voltage
----                                   -------
vdd                                    1.66085
i                                            0
zn                                     1.66085
vin#branch                                   0
vdd#branch                        -6.69129e-12

 Reference value :  6.09742e-08
 Reference value :  1.39791e-07
 Reference value :  2.15139e-07
 Reference value :  3.01911e-07
No. of Data Rows : 68030

  Measurements for Transient Analysis

tphl                =  1.93603e-09 targ=  2.74294e-08 trig=  2.54933e-08
tplh                =  3.91628e-09 targ=  1.02396e-07 trig=  9.84800e-08
i_vdd_avg           =  -1.69378e-06 from=  1.00000e-08 to=  3.30001e-07
power_avg_uw        =  2.81312e+00


Total analysis time (seconds) = 2.2176

Total elapsed time (seconds) = 2.280 

Total DRAM available = 16384.000 MB.
DRAM currently available =  103.250 MB.
Maximum ngspice program size =   16.953 MB.
Current ngspice program size =   16.953 MB.

