
Note: No compatibility mode selected!


Circuit: GF180MCU library cell oai21_1 A1_to_ZN__A2=0,B=1

Doing analysis at TEMP = -21.717838 and TNOM = 27.000000

Using SPARSE 1.3 as Direct Linear Solver

Initial Transient Solution
--------------------------

Node                                   Voltage
----                                   -------
vdd                                    1.82752
a1                                           0
a2                                           0
b                                      1.82752
zn                                     1.82752
xu1.net_0                          1.01067e-13
xu1.net_1                              1.82752
vfix_b#branch                                0
vfix_a2#branch                               0
vin#branch                                   0
vdd#branch                        -3.67506e-12

 Reference value :  7.95500e-08
 Reference value :  1.82233e-07
 Reference value :  2.91463e-07
No. of Data Rows : 68034

  Measurements for Transient Analysis

tphl                =  9.04030e-10 targ=  2.59028e-08 trig=  2.49988e-08
tplh                =  1.71137e-09 targ=  9.87077e-08 trig=  9.69963e-08
i_vdd_avg           =  -1.15382e-07 from=  1.00000e-08 to=  3.30003e-07
power_avg_uw        =  2.10863e-01


Total analysis time (seconds) = 1.79931

Total elapsed time (seconds) = 1.860 

Total DRAM available = 16384.000 MB.
DRAM currently available =   73.266 MB.
Maximum ngspice program size =   13.500 MB.
Current ngspice program size =   13.500 MB.

