
Note: No compatibility mode selected!


Circuit: GF180MCU library cell inv_1 I_to_ZN

Doing analysis at TEMP = 33.433926 and TNOM = 27.000000

Using SPARSE 1.3 as Direct Linear Solver

Initial Transient Solution
--------------------------

Node                                   Voltage
----                                   -------
vdd                                    1.64298
i                                            0
zn                                     1.64298
vin#branch                                   0
vdd#branch                        -1.65552e-12

 Reference value :  1.67031e-07
No. of Data Rows : 68030

  Measurements for Transient Analysis

tphl                =  1.52187e-09 targ=  2.82628e-08 trig=  2.67410e-08
tplh                =  2.59272e-09 targ=  1.04816e-07 trig=  1.02223e-07
i_vdd_avg           =  -9.83869e-08 from=  1.00000e-08 to=  3.30001e-07
power_avg_uw        =  1.61648e-01


Total analysis time (seconds) = 0.741861

Total elapsed time (seconds) = 0.809 

Total DRAM available = 16384.000 MB.
DRAM currently available =  120.109 MB.
Maximum ngspice program size =   13.922 MB.
Current ngspice program size =   13.922 MB.

