
Note: No compatibility mode selected!


Circuit: GF180MCU library cell mux2_1 I0_to_Z__I1=0,S=0

Doing analysis at TEMP = -29.364783 and TNOM = 27.000000

Using SPARSE 1.3 as Direct Linear Solver

Initial Transient Solution
--------------------------

Node                                   Voltage
----                                   -------
vdd                                    1.87553
i0                                           0
i1                                           0
s                                            0
xu1.int04                              1.87553
z                                  1.22781e-08
xu1.net_1                          1.85045e-05
xu1.net_3                               1.1651
xu1.sel1_n                             1.87553
xu1.net_0                              1.87553
xu1.net_2                              1.87553
vfix_s#branch                                0
vfix_i1#branch                               0
vin#branch                                   0
vdd#branch                        -9.97058e-12

 Reference value :  4.34560e-08
 Reference value :  1.05539e-07
 Reference value :  1.66944e-07
 Reference value :  2.25006e-07
 Reference value :  2.85714e-07
 Reference value :  3.39239e-07
No. of Data Rows : 68034

  Measurements for Transient Analysis

tplh                =  5.70959e-09 targ=  3.12188e-08 trig=  2.55092e-08
tphl                =  4.14595e-09 targ=  1.02674e-07 trig=  9.85277e-08
i_vdd_avg           =  -1.22285e-06 from=  1.00000e-08 to=  3.30004e-07
power_avg_uw        =  2.29348e+00


Total analysis time (seconds) = 3.09242

Total elapsed time (seconds) = 3.157 

Total DRAM available = 16384.000 MB.
DRAM currently available =  130.047 MB.
Maximum ngspice program size =   15.141 MB.
Current ngspice program size =   15.141 MB.

