
Note: No compatibility mode selected!


Circuit: GF180MCU library cell oai21_4 A1_to_ZN__A2=0,B=1

Doing analysis at TEMP = -19.447821 and TNOM = 27.000000

Using SPARSE 1.3 as Direct Linear Solver

Initial Transient Solution
--------------------------

Node                                   Voltage
----                                   -------
vdd                                    1.70083
a1                                           0
a2                                           0
b                                      1.70083
zn                                     1.70083
xu1.net_0                          1.45557e-13
xu1.net_1_0                            1.70083
xu1.net_1_1                            1.70083
xu1.net_1_2                            1.70083
xu1.net_1_3                            1.70083
vfix_b#branch                                0
vfix_a2#branch                               0
vin#branch                                   0
vdd#branch                        -1.36867e-11

 Reference value :  2.41925e-08
 Reference value :  5.52718e-08
 Reference value :  8.50668e-08
 Reference value :  1.15506e-07
 Reference value :  1.46696e-07
 Reference value :  1.75766e-07
 Reference value :  2.05057e-07
 Reference value :  2.32842e-07
 Reference value :  2.62947e-07
 Reference value :  2.92006e-07
 Reference value :  3.24306e-07
No. of Data Rows : 68032

  Measurements for Transient Analysis

tphl                =  2.81710e-09 targ=  2.90943e-08 trig=  2.62772e-08
tplh                =  7.00509e-09 targ=  1.07837e-07 trig=  1.00831e-07
i_vdd_avg           =  -1.54762e-06 from=  1.00000e-08 to=  3.30001e-07
power_avg_uw        =  2.63223e+00


Total analysis time (seconds) = 6.50672

Total elapsed time (seconds) = 6.570 

Total DRAM available = 16384.000 MB.
DRAM currently available =  112.750 MB.
Maximum ngspice program size =   14.016 MB.
Current ngspice program size =   14.016 MB.

