
Note: No compatibility mode selected!


Circuit: GF180MCU library cell oai21_4 A1_to_ZN__A2=0,B=1

Doing analysis at TEMP = -7.770140 and TNOM = 27.000000

Using SPARSE 1.3 as Direct Linear Solver

Initial Transient Solution
--------------------------

Node                                   Voltage
----                                   -------
vdd                                    1.74815
a1                                           0
a2                                           0
b                                      1.74815
zn                                     1.74815
xu1.net_0                          6.15482e-13
xu1.net_1_0                            1.74815
xu1.net_1_1                            1.74815
xu1.net_1_2                            1.74815
xu1.net_1_3                            1.74815
vfix_b#branch                                0
vfix_a2#branch                               0
vin#branch                                   0
vdd#branch                        -1.40655e-11

 Reference value :  2.22764e-08
 Reference value :  5.41232e-08
 Reference value :  8.43432e-08
 Reference value :  1.12889e-07
 Reference value :  1.43364e-07
 Reference value :  1.74324e-07
 Reference value :  2.05368e-07
 Reference value :  2.36023e-07
 Reference value :  2.68489e-07
 Reference value :  2.93874e-07
 Reference value :  3.23594e-07
No. of Data Rows : 68032

  Measurements for Transient Analysis

tphl                =  2.80691e-09 targ=  3.02398e-08 trig=  2.74329e-08
tplh                =  5.66047e-09 targ=  1.09959e-07 trig=  1.04299e-07
i_vdd_avg           =  -1.08732e-06 from=  1.00000e-08 to=  3.30004e-07
power_avg_uw        =  1.90080e+00


Total analysis time (seconds) = 4.62122

Total elapsed time (seconds) = 4.694 

Total DRAM available = 16384.000 MB.
DRAM currently available =  189.297 MB.
Maximum ngspice program size =   15.875 MB.
Current ngspice program size =   15.875 MB.

