
Note: No compatibility mode selected!


Circuit: GF180MCU library cell mux2_4 I0_to_Z__I1=0,S=0

Doing analysis at TEMP = 104.921220 and TNOM = 27.000000

Using SPARSE 1.3 as Direct Linear Solver

Initial Transient Solution
--------------------------

Node                                   Voltage
----                                   -------
vdd                                    1.80498
i0                                           0
i1                                           0
s                                            0
xu1.int04                              1.80498
z                                  1.84889e-08
xu1.net_1                             0.029424
xu1.net_3                              1.23191
xu1.sel1_n                             1.80498
xu1.net_0                              1.80498
xu1.net_2                              1.80498
vfix_s#branch                                0
vfix_i1#branch                               0
vin#branch                                   0
vdd#branch                        -1.64787e-11

 Reference value :  2.97575e-08
 Reference value :  6.90892e-08
 Reference value :  1.07744e-07
 Reference value :  1.48271e-07
 Reference value :  1.87888e-07
 Reference value :  2.27279e-07
 Reference value :  2.66194e-07
 Reference value :  3.05316e-07
No. of Data Rows : 68030

  Measurements for Transient Analysis

tplh                =  4.27348e-09 targ=  3.32993e-08 trig=  2.90259e-08
tphl                =  5.75530e-09 targ=  1.14833e-07 trig=  1.09078e-07
i_vdd_avg           =  -1.30347e-06 from=  1.00000e-08 to=  3.30001e-07
power_avg_uw        =  2.35274e+00


Total analysis time (seconds) = 4.7424

Total elapsed time (seconds) = 4.804 

Total DRAM available = 16384.000 MB.
DRAM currently available =  130.062 MB.
Maximum ngspice program size =   14.578 MB.
Current ngspice program size =   14.578 MB.

