
Note: No compatibility mode selected!


Circuit: GF180MCU library cell nand2_1 A1_to_ZN__A2=1

Doing analysis at TEMP = 27.848240 and TNOM = 27.000000

Using SPARSE 1.3 as Direct Linear Solver

Initial Transient Solution
--------------------------

Node                                   Voltage
----                                   -------
vdd                                    1.94758
a1                                           0
a2                                     1.94758
xu1.net_0                          1.24393e-11
zn                                     1.94758
vfix_a2#branch                               0
vin#branch                                   0
vdd#branch                        -1.95933e-12

 Reference value :  1.05872e-07
 Reference value :  2.50245e-07
No. of Data Rows : 68030

  Measurements for Transient Analysis

tphl                =  3.69774e-09 targ=  2.97512e-08 trig=  2.60535e-08
tplh                =  5.23951e-09 targ=  1.05400e-07 trig=  1.00161e-07
i_vdd_avg           =  -9.68221e-07 from=  1.00000e-08 to=  3.30002e-07
power_avg_uw        =  1.88569e+00


Total analysis time (seconds) = 1.17135

Total elapsed time (seconds) = 1.240 

Total DRAM available = 16384.000 MB.
DRAM currently available =   98.531 MB.
Maximum ngspice program size =   13.734 MB.
Current ngspice program size =   13.734 MB.

