
Note: No compatibility mode selected!


Circuit: GF180MCU library cell mux2_1 I0_to_Z__I1=0,S=0

Doing analysis at TEMP = 114.426850 and TNOM = 27.000000

Using SPARSE 1.3 as Direct Linear Solver

Initial Transient Solution
--------------------------

Node                                   Voltage
----                                   -------
vdd                                    1.92156
i0                                           0
i1                                           0
s                                            0
xu1.int04                              1.92156
z                                  1.85632e-08
xu1.net_1                            0.0421348
xu1.net_3                              1.41005
xu1.sel1_n                             1.92156
xu1.net_0                              1.92156
xu1.net_2                              1.92156
vfix_s#branch                                0
vfix_i1#branch                               0
vin#branch                                   0
vdd#branch                        -1.86551e-11

 Reference value :  4.18298e-08
 Reference value :  9.62848e-08
 Reference value :  1.50252e-07
 Reference value :  2.10215e-07
 Reference value :  2.66097e-07
 Reference value :  3.26052e-07
No. of Data Rows : 68030

  Measurements for Transient Analysis

tplh                =  7.47281e-09 targ=  3.36965e-08 trig=  2.62237e-08
tphl                =  5.37396e-09 targ=  1.06045e-07 trig=  1.00671e-07
i_vdd_avg           =  -1.53993e-06 from=  1.00000e-08 to=  3.30002e-07
power_avg_uw        =  2.95906e+00


Total analysis time (seconds) = 3.26699

Total elapsed time (seconds) = 3.325 

Total DRAM available = 16384.000 MB.
DRAM currently available =   94.906 MB.
Maximum ngspice program size =   13.016 MB.
Current ngspice program size =   12.891 MB.

