
Note: No compatibility mode selected!


Circuit: GF180MCU library cell inv_4 I_to_ZN

Doing analysis at TEMP = 3.726683 and TNOM = 27.000000

Using SPARSE 1.3 as Direct Linear Solver

Initial Transient Solution
--------------------------

Node                                   Voltage
----                                   -------
vdd                                    1.75057
i                                            0
zn                                     1.75057
vin#branch                                   0
vdd#branch                        -7.04287e-12

 Reference value :  6.37375e-08
 Reference value :  1.49628e-07
 Reference value :  2.41373e-07
 Reference value :  3.26103e-07
No. of Data Rows : 68032

  Measurements for Transient Analysis

tphl                =  2.79845e-09 targ=  3.26460e-08 trig=  2.98475e-08
tplh                =  4.97540e-09 targ=  1.16518e-07 trig=  1.11543e-07
i_vdd_avg           =  -8.31541e-07 from=  1.00000e-08 to=  3.30003e-07
power_avg_uw        =  1.45567e+00


Total analysis time (seconds) = 2.07903

Total elapsed time (seconds) = 2.146 

Total DRAM available = 16384.000 MB.
DRAM currently available =  104.703 MB.
Maximum ngspice program size =   14.797 MB.
Current ngspice program size =   14.797 MB.

