
Note: No compatibility mode selected!


Circuit: GF180MCU library cell oai21_1 A1_to_ZN__A2=0,B=1

Doing analysis at TEMP = 51.955052 and TNOM = 27.000000

Using SPARSE 1.3 as Direct Linear Solver

Initial Transient Solution
--------------------------

Node                                   Voltage
----                                   -------
vdd                                    1.72134
a1                                           0
a2                                           0
b                                      1.72134
zn                                     1.72134
xu1.net_0                          2.22714e-10
xu1.net_1                              1.72134
vfix_b#branch                                0
vfix_a2#branch                               0
vin#branch                                   0
vdd#branch                        -3.48698e-12

 Reference value :  8.69165e-08
 Reference value :  1.92706e-07
 Reference value :  2.94255e-07
No. of Data Rows : 68032

  Measurements for Transient Analysis

tphl                =  4.71909e-09 targ=  3.04236e-08 trig=  2.57045e-08
tplh                =  1.26097e-08 targ=  1.11723e-07 trig=  9.91135e-08
i_vdd_avg           =  -9.10323e-07 from=  1.00000e-08 to=  3.30000e-07
power_avg_uw        =  1.56698e+00


Total analysis time (seconds) = 1.69204

Total elapsed time (seconds) = 1.752 

Total DRAM available = 16384.000 MB.
DRAM currently available =  117.500 MB.
Maximum ngspice program size =   15.422 MB.
Current ngspice program size =   15.422 MB.

