
Note: No compatibility mode selected!


Circuit: GF180MCU library cell aoi21_1 A1_to_ZN__A2=1,B=0

Doing analysis at TEMP = 104.426130 and TNOM = 27.000000

Using SPARSE 1.3 as Direct Linear Solver

Initial Transient Solution
--------------------------

Node                                   Voltage
----                                   -------
vdd                                    1.71431
a1                                           0
a2                                     1.71431
b                                            0
xu1.net_0                            4.306e-09
zn                                     1.71431
xu1.net_1                              1.71431
vfix_b#branch                                0
vfix_a2#branch                               0
vin#branch                                   0
vdd#branch                        -4.34693e-12

 Reference value :  7.53182e-08
 Reference value :  1.86058e-07
 Reference value :  2.96114e-07
No. of Data Rows : 68032

  Measurements for Transient Analysis

tphl                =  5.57348e-09 targ=  3.11938e-08 trig=  2.56203e-08
tplh                =  1.48350e-08 targ=  1.13696e-07 trig=  9.88610e-08
i_vdd_avg           =  -1.05303e-06 from=  1.00000e-08 to=  3.30004e-07
power_avg_uw        =  1.80522e+00


Total analysis time (seconds) = 1.61791

Total elapsed time (seconds) = 1.691 

Total DRAM available = 16384.000 MB.
DRAM currently available =   86.125 MB.
Maximum ngspice program size =   15.266 MB.
Current ngspice program size =   15.266 MB.

