
Note: No compatibility mode selected!


Circuit: GF180MCU library cell nand2_1 A1_to_ZN__A2=1

Doing analysis at TEMP = 8.238231 and TNOM = 27.000000

Using SPARSE 1.3 as Direct Linear Solver

Initial Transient Solution
--------------------------

Node                                   Voltage
----                                   -------
vdd                                    1.86178
a1                                           0
a2                                     1.86178
xu1.net_0                          1.79736e-12
zn                                     1.86178
vfix_a2#branch                               0
vin#branch                                   0
vdd#branch                        -1.87203e-12

 Reference value :  1.18700e-07
 Reference value :  2.58504e-07
No. of Data Rows : 68030

  Measurements for Transient Analysis

tphl                =  7.40073e-09 targ=  3.25439e-08 trig=  2.51432e-08
tplh                =  1.10799e-08 targ=  1.08509e-07 trig=  9.74295e-08
i_vdd_avg           =  -2.21238e-06 from=  1.00000e-08 to=  3.30000e-07
power_avg_uw        =  4.11896e+00


Total analysis time (seconds) = 1.22517

Total elapsed time (seconds) = 1.294 

Total DRAM available = 16384.000 MB.
DRAM currently available =   81.234 MB.
Maximum ngspice program size =   13.453 MB.
Current ngspice program size =   13.250 MB.

