
Note: No compatibility mode selected!


Circuit: GF180MCU library cell inv_4 I_to_ZN

Doing analysis at TEMP = 56.629116 and TNOM = 27.000000

Using SPARSE 1.3 as Direct Linear Solver

Initial Transient Solution
--------------------------

Node                                   Voltage
----                                   -------
vdd                                    1.81018
i                                            0
zn                                     1.81018
vin#branch                                   0
vdd#branch                        -7.35284e-12

 Reference value :  6.48592e-08
 Reference value :  1.48871e-07
 Reference value :  2.34059e-07
 Reference value :  3.16746e-07
No. of Data Rows : 68030

  Measurements for Transient Analysis

tphl                =  1.67625e-09 targ=  2.89571e-08 trig=  2.72808e-08
tplh                =  2.95427e-09 targ=  1.06797e-07 trig=  1.03843e-07
i_vdd_avg           =  -7.15996e-07 from=  1.00000e-08 to=  3.30001e-07
power_avg_uw        =  1.29608e+00


Total analysis time (seconds) = 2.13265

Total elapsed time (seconds) = 2.192 

Total DRAM available = 16384.000 MB.
DRAM currently available =  110.391 MB.
Maximum ngspice program size =   15.344 MB.
Current ngspice program size =   15.344 MB.

