
Note: No compatibility mode selected!


Circuit: GF180MCU library cell mux2_4 I0_to_Z__I1=0,S=0

Doing analysis at TEMP = -14.462443 and TNOM = 27.000000

Using SPARSE 1.3 as Direct Linear Solver

Initial Transient Solution
--------------------------

Node                                   Voltage
----                                   -------
vdd                                    1.91472
i0                                           0
i1                                           0
s                                            0
xu1.int04                              1.91472
z                                  1.27891e-08
xu1.net_1                           6.8889e-06
xu1.net_3                              1.11841
xu1.sel1_n                             1.91472
xu1.net_0                              1.91472
xu1.net_2                              1.91472
vfix_s#branch                                0
vfix_i1#branch                               0
vin#branch                                   0
vdd#branch                        -1.60514e-11

 Reference value :  3.02867e-08
 Reference value :  7.07767e-08
 Reference value :  1.12891e-07
 Reference value :  1.53116e-07
 Reference value :  1.92557e-07
 Reference value :  2.32947e-07
 Reference value :  2.73496e-07
 Reference value :  3.16901e-07
No. of Data Rows : 68032

  Measurements for Transient Analysis

tplh                =  3.39191e-09 targ=  2.80865e-08 trig=  2.46946e-08
tphl                =  3.44694e-09 targ=  9.95308e-08 trig=  9.60839e-08
i_vdd_avg           =  -2.53210e-06 from=  1.00000e-08 to=  3.30001e-07
power_avg_uw        =  4.84827e+00


Total analysis time (seconds) = 4.66322

Total elapsed time (seconds) = 4.733 

Total DRAM available = 16384.000 MB.
DRAM currently available =   78.109 MB.
Maximum ngspice program size =   15.469 MB.
Current ngspice program size =   15.469 MB.

