
Note: No compatibility mode selected!


Circuit: GF180MCU library cell oai21_4 A1_to_ZN__A2=0,B=1

Doing analysis at TEMP = 78.560989 and TNOM = 27.000000

Using SPARSE 1.3 as Direct Linear Solver

Initial Transient Solution
--------------------------

Node                                   Voltage
----                                   -------
vdd                                    1.67575
a1                                           0
a2                                           0
b                                      1.67575
zn                                     1.67575
xu1.net_0                          1.65932e-09
xu1.net_1_0                            1.67575
xu1.net_1_1                            1.67575
xu1.net_1_2                            1.67575
xu1.net_1_3                            1.67575
vfix_b#branch                                0
vfix_a2#branch                               0
vin#branch                                   0
vdd#branch                        -1.41354e-11

 Reference value :  2.20114e-08
 Reference value :  5.25394e-08
 Reference value :  8.21044e-08
 Reference value :  1.10639e-07
 Reference value :  1.39511e-07
 Reference value :  1.69091e-07
 Reference value :  2.01669e-07
 Reference value :  2.30974e-07
 Reference value :  2.62029e-07
 Reference value :  2.91776e-07
 Reference value :  3.20001e-07
No. of Data Rows : 68030

  Measurements for Transient Analysis

tphl                =  2.97471e-09 targ=  3.23832e-08 trig=  2.94085e-08
tplh                =  5.84932e-09 targ=  1.16075e-07 trig=  1.10225e-07
i_vdd_avg           =  -6.51063e-07 from=  1.00000e-08 to=  3.30001e-07
power_avg_uw        =  1.09102e+00


Total analysis time (seconds) = 6.44817

Total elapsed time (seconds) = 6.533 

Total DRAM available = 16384.000 MB.
DRAM currently available =  117.500 MB.
Maximum ngspice program size =   17.891 MB.
Current ngspice program size =   17.891 MB.

