
Note: No compatibility mode selected!


Circuit: GF180MCU library cell aoi21_4 A1_to_ZN__A2=1,B=0

Doing analysis at TEMP = -20.079551 and TNOM = 27.000000

Using SPARSE 1.3 as Direct Linear Solver

Initial Transient Solution
--------------------------

Node                                   Voltage
----                                   -------
vdd                                    1.65834
a1                                           0
a2                                     1.65834
b                                            0
xu1.net_0_0                        6.86563e-14
zn                                     1.65834
xu1.net_0_1                        6.83941e-14
xu1.net_0_2                        6.86563e-14
xu1.net_0_3                        6.83941e-14
xu1.net_1                              1.65834
vfix_b#branch                                0
vfix_a2#branch                               0
vin#branch                                   0
vdd#branch                        -1.33468e-11

 Reference value :  2.34114e-08
 Reference value :  5.28080e-08
 Reference value :  8.26580e-08
 Reference value :  1.14468e-07
 Reference value :  1.45693e-07
 Reference value :  1.76688e-07
 Reference value :  2.08098e-07
 Reference value :  2.38913e-07
 Reference value :  2.69938e-07
 Reference value :  3.01893e-07
 Reference value :  3.32633e-07
No. of Data Rows : 68032

  Measurements for Transient Analysis

tphl                =  4.22514e-09 targ=  3.28654e-08 trig=  2.86402e-08
tplh                =  8.42298e-09 targ=  1.16344e-07 trig=  1.07921e-07
i_vdd_avg           =  -1.46590e-06 from=  1.00000e-08 to=  3.30003e-07
power_avg_uw        =  2.43096e+00


Total analysis time (seconds) = 6.29237

Total elapsed time (seconds) = 6.361 

Total DRAM available = 16384.000 MB.
DRAM currently available =   91.781 MB.
Maximum ngspice program size =   14.875 MB.
Current ngspice program size =   14.875 MB.

