
Note: No compatibility mode selected!


Circuit: GF180MCU library cell inv_1 I_to_ZN

Doing analysis at TEMP = 53.320876 and TNOM = 27.000000

Using SPARSE 1.3 as Direct Linear Solver

Initial Transient Solution
--------------------------

Node                                   Voltage
----                                   -------
vdd                                    1.97185
i                                            0
zn                                     1.97185
vin#branch                                   0
vdd#branch                        -1.99675e-12

 Reference value :  1.82713e-07
No. of Data Rows : 68032

  Measurements for Transient Analysis

tphl                =  3.60462e-09 targ=  3.32173e-08 trig=  2.96127e-08
tplh                =  6.05381e-09 targ=  1.16892e-07 trig=  1.10838e-07
i_vdd_avg           =  -7.15179e-07 from=  1.00000e-08 to=  3.30003e-07
power_avg_uw        =  1.41022e+00


Total analysis time (seconds) = 0.675993

Total elapsed time (seconds) = 0.739 

Total DRAM available = 16384.000 MB.
DRAM currently available =  100.375 MB.
Maximum ngspice program size =   13.703 MB.
Current ngspice program size =   13.703 MB.

