
Note: No compatibility mode selected!


Circuit: GF180MCU library cell nand2_1 A1_to_ZN__A2=1

Doing analysis at TEMP = 115.437890 and TNOM = 27.000000

Using SPARSE 1.3 as Direct Linear Solver

Initial Transient Solution
--------------------------

Node                                   Voltage
----                                   -------
vdd                                    1.62414
a1                                           0
a2                                     1.62414
xu1.net_0                          8.57704e-09
zn                                     1.62414
vfix_a2#branch                               0
vin#branch                                   0
vdd#branch                        -2.37037e-12

 Reference value :  1.04768e-07
 Reference value :  2.55048e-07
No. of Data Rows : 68032

  Measurements for Transient Analysis

tphl                =  7.21124e-09 targ=  3.16314e-08 trig=  2.44202e-08
tplh                =  1.07387e-08 targ=  1.05999e-07 trig=  9.52606e-08
i_vdd_avg           =  -1.29704e-06 from=  1.00000e-08 to=  3.30003e-07
power_avg_uw        =  2.10658e+00


Total analysis time (seconds) = 1.15152

Total elapsed time (seconds) = 1.240 

Total DRAM available = 16384.000 MB.
DRAM currently available =   85.875 MB.
Maximum ngspice program size =   18.188 MB.
Current ngspice program size =   18.188 MB.

