
Note: No compatibility mode selected!


Circuit: GF180MCU library cell mux2_4 I0_to_Z__I1=0,S=0

Doing analysis at TEMP = 50.550032 and TNOM = 27.000000

Using SPARSE 1.3 as Direct Linear Solver

Initial Transient Solution
--------------------------

Node                                   Voltage
----                                   -------
vdd                                    1.66292
i0                                           0
i1                                           0
s                                            0
xu1.int04                              1.66292
z                                  1.67887e-08
xu1.net_1                           0.00338056
xu1.net_3                              1.03451
xu1.sel1_n                             1.66292
xu1.net_0                              1.66292
xu1.net_2                              1.66292
vfix_s#branch                                0
vfix_i1#branch                               0
vin#branch                                   0
vdd#branch                        -1.40906e-11

 Reference value :  2.75175e-08
 Reference value :  6.61968e-08
 Reference value :  1.05882e-07
 Reference value :  1.48701e-07
 Reference value :  1.86643e-07
 Reference value :  2.29372e-07
 Reference value :  2.67727e-07
 Reference value :  3.05956e-07
No. of Data Rows : 68032

  Measurements for Transient Analysis

tplh                =  3.97183e-09 targ=  3.17665e-08 trig=  2.77947e-08
tphl                =  5.73055e-09 targ=  1.11115e-07 trig=  1.05384e-07
i_vdd_avg           =  -7.31494e-07 from=  1.00000e-08 to=  3.30001e-07
power_avg_uw        =  1.21642e+00


Total analysis time (seconds) = 4.80591

Total elapsed time (seconds) = 4.872 

Total DRAM available = 16384.000 MB.
DRAM currently available =  103.406 MB.
Maximum ngspice program size =   15.609 MB.
Current ngspice program size =   15.609 MB.

