
Note: No compatibility mode selected!


Circuit: GF180MCU library cell inv_1 I_to_ZN

Doing analysis at TEMP = 119.649930 and TNOM = 27.000000

Using SPARSE 1.3 as Direct Linear Solver

Initial Transient Solution
--------------------------

Node                                   Voltage
----                                   -------
vdd                                    1.88223
i                                            0
zn                                     1.88223
vin#branch                                   0
vdd#branch                        -2.91223e-12

 Reference value :  1.63067e-07
No. of Data Rows : 68032

  Measurements for Transient Analysis

tphl                =  3.28638e-09 targ=  2.75463e-08 trig=  2.42599e-08
tplh                =  7.69322e-09 targ=  1.02473e-07 trig=  9.47797e-08
i_vdd_avg           =  -1.65979e-06 from=  1.00000e-08 to=  3.30002e-07
power_avg_uw        =  3.12411e+00


Total analysis time (seconds) = 0.736824

Total elapsed time (seconds) = 0.826 

Total DRAM available = 16384.000 MB.
DRAM currently available =  114.109 MB.
Maximum ngspice program size =   17.750 MB.
Current ngspice program size =   17.750 MB.

