
Note: No compatibility mode selected!


Circuit: GF180MCU library cell aoi21_1 A1_to_ZN__A2=1,B=0

Doing analysis at TEMP = 49.407259 and TNOM = 27.000000

Using SPARSE 1.3 as Direct Linear Solver

Initial Transient Solution
--------------------------

Node                                   Voltage
----                                   -------
vdd                                    1.84291
a1                                           0
a2                                     1.84291
b                                            0
xu1.net_0                           8.5697e-11
zn                                     1.84291
xu1.net_1                              1.84291
vfix_b#branch                                0
vfix_a2#branch                               0
vin#branch                                   0
vdd#branch                        -3.73007e-12

 Reference value :  7.00001e-08
 Reference value :  1.75343e-07
 Reference value :  2.83563e-07
No. of Data Rows : 68034

  Measurements for Transient Analysis

tphl                =  8.85460e-09 targ=  3.57159e-08 trig=  2.68613e-08
tplh                =  2.32121e-08 targ=  1.25796e-07 trig=  1.02584e-07
i_vdd_avg           =  -2.18063e-06 from=  1.00000e-08 to=  3.30003e-07
power_avg_uw        =  4.01871e+00


Total analysis time (seconds) = 1.83755

Total elapsed time (seconds) = 1.905 

Total DRAM available = 16384.000 MB.
DRAM currently available =   95.203 MB.
Maximum ngspice program size =   15.750 MB.
Current ngspice program size =   15.750 MB.

