
Note: No compatibility mode selected!


Circuit: GF180MCU library cell mux2_4 I0_to_Z__I1=0,S=0

Doing analysis at TEMP = -1.939965 and TNOM = 27.000000

Using SPARSE 1.3 as Direct Linear Solver

Initial Transient Solution
--------------------------

Node                                   Voltage
----                                   -------
vdd                                    1.74288
i0                                           0
i1                                           0
s                                            0
xu1.int04                              1.74288
z                                  1.40468e-08
xu1.net_1                          2.82439e-05
xu1.net_3                              1.00571
xu1.sel1_n                             1.74288
xu1.net_0                              1.74288
xu1.net_2                              1.74288
vfix_s#branch                                0
vfix_i1#branch                               0
vin#branch                                   0
vdd#branch                        -1.45835e-11

 Reference value :  2.87525e-08
 Reference value :  6.83028e-08
 Reference value :  1.06493e-07
 Reference value :  1.46123e-07
 Reference value :  1.86958e-07
 Reference value :  2.23513e-07
 Reference value :  2.63448e-07
 Reference value :  3.03888e-07
No. of Data Rows : 68032

  Measurements for Transient Analysis

tplh                =  4.94227e-09 targ=  3.18249e-08 trig=  2.68827e-08
tphl                =  5.47277e-09 targ=  1.08121e-07 trig=  1.02648e-07
i_vdd_avg           =  -2.00449e-06 from=  1.00000e-08 to=  3.30003e-07
power_avg_uw        =  3.49358e+00


Total analysis time (seconds) = 4.90854

Total elapsed time (seconds) = 4.975 

Total DRAM available = 16384.000 MB.
DRAM currently available =   76.125 MB.
Maximum ngspice program size =   15.000 MB.
Current ngspice program size =   15.000 MB.

