
Note: No compatibility mode selected!


Circuit: GF180MCU library cell xor2_1 A1_to_Z__A2=0

Doing analysis at TEMP = 123.997910 and TNOM = 27.000000

Using SPARSE 1.3 as Direct Linear Solver

Initial Transient Solution
--------------------------

Node                                   Voltage
----                                   -------
vdd                                      1.696
a1                                           0
a2                                           0
xu1.i                                    1.696
z                                  7.31988e-08
xu1.net_0                          3.37529e-08
xu1.net_2                                1.696
xu1.net_1                             0.653456
vfix_a2#branch                               0
vin#branch                                   0
vdd#branch                        -2.09515e-11

 Reference value :  4.85072e-08
 Reference value :  1.20312e-07
 Reference value :  1.91487e-07
 Reference value :  2.63297e-07
 Reference value :  3.27572e-07
No. of Data Rows : 68032

  Measurements for Transient Analysis

tplh                =  5.53647e-09 targ=  3.04613e-08 trig=  2.49248e-08
tphl                =  3.39712e-09 targ=  1.00172e-07 trig=  9.67745e-08
i_vdd_avg           =  -3.96838e-07 from=  1.00000e-08 to=  3.30002e-07
power_avg_uw        =  6.73036e-01


Total analysis time (seconds) = 2.69259

Total elapsed time (seconds) = 2.760 

Total DRAM available = 16384.000 MB.
DRAM currently available =   86.125 MB.
Maximum ngspice program size =   14.047 MB.
Current ngspice program size =   14.047 MB.

