
Note: No compatibility mode selected!


Circuit: GF180MCU library cell nand3_4 A1_to_ZN__A2=1,A3=1

Doing analysis at TEMP = 11.227970 and TNOM = 27.000000

Using SPARSE 1.3 as Direct Linear Solver

Initial Transient Solution
--------------------------

Node                                   Voltage
----                                   -------
vdd                                    1.80426
a1                                           0
a2                                     1.80426
a3                                     1.80426
xu1.net_1_3                        2.52942e-12
xu1.net_0                          5.05884e-12
xu1.net_1_2                        2.52946e-12
xu1.net_1_1                        2.52942e-12
xu1.net_1_0                        2.52942e-12
xu1.net_0_0                        5.05884e-12
zn                                     1.80426
vfix_a3#branch                               0
vfix_a2#branch                               0
vin#branch                                   0
vdd#branch                        -7.25838e-12

 Reference value :  2.51975e-08
 Reference value :  5.70416e-08
 Reference value :  8.59866e-08
 Reference value :  1.15786e-07
 Reference value :  1.46496e-07
 Reference value :  1.76311e-07
 Reference value :  2.08462e-07
 Reference value :  2.38867e-07
 Reference value :  2.68707e-07
 Reference value :  3.00721e-07
 Reference value :  3.33371e-07
No. of Data Rows : 68032

  Measurements for Transient Analysis

tphl                =  3.86075e-09 targ=  3.20478e-08 trig=  2.81870e-08
tplh                =  4.99731e-09 targ=  1.11558e-07 trig=  1.06561e-07
i_vdd_avg           =  -1.46066e-06 from=  1.00000e-08 to=  3.30001e-07
power_avg_uw        =  2.63540e+00


Total analysis time (seconds) = 5.1857

Total elapsed time (seconds) = 5.251 

Total DRAM available = 16384.000 MB.
DRAM currently available =  177.641 MB.
Maximum ngspice program size =   13.953 MB.
Current ngspice program size =   13.953 MB.

