
Note: Compatibility modes selected: hs a


Circuit: SKY130 library cell mux2_1 A0_to_X__A1=0,S=0

option SCALE: Scale is set to 1e-06 for instance and model parameters
Doing analysis at TEMP = 111.128550 and TNOM = 27.000000

Using KLU as Direct Linear Solver
 Reference value :  1.33964e-08
 Reference value :  6.58503e-08
 Reference value :  1.23218e-07
 Reference value :  1.75028e-07
 Reference value :  2.25540e-07
 Reference value :  2.70583e-07
 Reference value :  3.11808e-07
No. of Data Rows : 68034

  Measurements for Transient Analysis

tplh                =  5.35419e-10 targ=  2.80818e-08 trig=  2.75464e-08
tphl                =  1.37928e-09 targ=  1.06018e-07 trig=  1.04639e-07
i_vdd_avg           =  -1.30110e-06 from=  1.00000e-08 to=  3.30003e-07
power_avg_uw        =  2.47308e+00


Total analysis time (seconds) = 922.898

Total elapsed time (seconds) = 923.070 

Total DRAM available = 16384.000 MB.
DRAM currently available =  177.969 MB.
Maximum ngspice program size =   26.109 MB.
Current ngspice program size =   26.109 MB.

