
Note: Compatibility modes selected: hs a


Circuit: SKY130 library cell aoi21_4 A1_to_Y__A2=1,B1=0

option SCALE: Scale is set to 1e-06 for instance and model parameters
Doing analysis at TEMP = 64.918343 and TNOM = 27.000000

Using KLU as Direct Linear Solver
 Reference value :  0.00000e+00
 Reference value :  1.61014e-08
 Reference value :  3.22633e-08
 Reference value :  4.86133e-08
 Reference value :  6.47083e-08
 Reference value :  8.11683e-08
 Reference value :  9.73583e-08
 Reference value :  1.13919e-07
 Reference value :  1.30584e-07
 Reference value :  1.46909e-07
 Reference value :  1.63224e-07
 Reference value :  1.79869e-07
 Reference value :  1.96408e-07
 Reference value :  2.12703e-07
 Reference value :  2.28983e-07
 Reference value :  2.45598e-07
 Reference value :  2.61513e-07
 Reference value :  2.78049e-07
 Reference value :  2.94659e-07
 Reference value :  3.11114e-07
 Reference value :  3.27499e-07
No. of Data Rows : 68032

  Measurements for Transient Analysis

tphl                =  8.57741e-10 targ=  2.71932e-08 trig=  2.63354e-08
tplh                =  1.69803e-09 targ=  1.02704e-07 trig=  1.01006e-07
i_vdd_avg           =  -2.30131e-06 from=  1.00000e-08 to=  3.30004e-07
power_avg_uw        =  4.02969e+00


Total analysis time (seconds) = 5.42848

Total elapsed time (seconds) = 5.710 

Total DRAM available = 16384.000 MB.
DRAM currently available =  118.469 MB.
Maximum ngspice program size =   25.906 MB.
Current ngspice program size =   25.906 MB.

