
Note: Compatibility modes selected: hs a


Circuit: SKY130 library cell nor2_1 A_to_Y__B=0

option SCALE: Scale is set to 1e-06 for instance and model parameters
Doing analysis at TEMP = 39.707957 and TNOM = 27.000000

Using KLU as Direct Linear Solver
 Reference value :  0.00000e+00
 Reference value :  8.07256e-08
 Reference value :  1.59189e-07
 Reference value :  2.40091e-07
 Reference value :  3.18824e-07
No. of Data Rows : 68034

  Measurements for Transient Analysis

tphl                =  8.51735e-10 targ=  2.54258e-08 trig=  2.45741e-08
tplh                =  2.98155e-09 targ=  9.87037e-08 trig=  9.57222e-08
i_vdd_avg           =  -2.37440e-06 from=  1.00000e-08 to=  3.30004e-07
power_avg_uw        =  4.33278e+00


Total analysis time (seconds) = 1.1036

Total elapsed time (seconds) = 1.356 

Total DRAM available = 16384.000 MB.
DRAM currently available =  131.750 MB.
Maximum ngspice program size =   26.312 MB.
Current ngspice program size =   26.312 MB.

