
Note: Compatibility modes selected: hs a


Circuit: SKY130 library cell xor2_1 A_to_X__B=0

option SCALE: Scale is set to 1e-06 for instance and model parameters
Doing analysis at TEMP = 102.942890 and TNOM = 27.000000

Using KLU as Direct Linear Solver
 Reference value :  0.00000e+00
 Reference value :  3.61050e-08
 Reference value :  7.22050e-08
 Reference value :  1.08318e-07
 Reference value :  1.44643e-07
 Reference value :  1.80748e-07
 Reference value :  2.16900e-07
 Reference value :  2.53240e-07
 Reference value :  2.90093e-07
 Reference value :  3.26568e-07
No. of Data Rows : 68034

  Measurements for Transient Analysis

tplh                =  2.44673e-09 targ=  2.82880e-08 trig=  2.58413e-08
tphl                =  1.11684e-09 targ=  1.00641e-07 trig=  9.95238e-08
i_vdd_avg           =  -2.43614e-06 from=  1.00000e-08 to=  3.30003e-07
power_avg_uw        =  4.46265e+00


Total analysis time (seconds) = 2.82042

Total elapsed time (seconds) = 3.223 

Total DRAM available = 16384.000 MB.
DRAM currently available =  146.109 MB.
Maximum ngspice program size =   25.453 MB.
Current ngspice program size =   25.453 MB.

