
Note: Compatibility modes selected: hs a


Circuit: SKY130 library cell xor2_1 A_to_X__B=0

option SCALE: Scale is set to 1e-06 for instance and model parameters
Doing analysis at TEMP = 16.134956 and TNOM = 27.000000

Using KLU as Direct Linear Solver
 Reference value :  0.00000e+00
 Reference value :  3.76217e-08
 Reference value :  7.40167e-08
 Reference value :  1.10521e-07
 Reference value :  1.46966e-07
 Reference value :  1.85808e-07
 Reference value :  2.23317e-07
 Reference value :  2.61467e-07
 Reference value :  3.00151e-07
 Reference value :  3.38936e-07
No. of Data Rows : 68032

  Measurements for Transient Analysis

tplh                =  1.28277e-09 targ=  2.92699e-08 trig=  2.79871e-08
tphl                =  1.46802e-09 targ=  1.07429e-07 trig=  1.05961e-07
i_vdd_avg           =  -8.23550e-07 from=  1.00000e-08 to=  3.30001e-07
power_avg_uw        =  1.37634e+00


Total analysis time (seconds) = 2.35195

Total elapsed time (seconds) = 2.608 

Total DRAM available = 16384.000 MB.
DRAM currently available =  113.500 MB.
Maximum ngspice program size =   26.500 MB.
Current ngspice program size =   26.500 MB.

