
Note: Compatibility modes selected: hs a


Circuit: SKY130 library cell xor2_1 A_to_X__B=0

option SCALE: Scale is set to 1e-06 for instance and model parameters
Doing analysis at TEMP = 58.939643 and TNOM = 27.000000

Using KLU as Direct Linear Solver
 Reference value :  0.00000e+00
 Reference value :  3.62986e-08
 Reference value :  7.23286e-08
 Reference value :  1.07904e-07
 Reference value :  1.43980e-07
 Reference value :  1.80480e-07
 Reference value :  2.17829e-07
 Reference value :  2.53599e-07
 Reference value :  2.91035e-07
 Reference value :  3.27220e-07
No. of Data Rows : 68032

  Measurements for Transient Analysis

tplh                =  1.06704e-09 targ=  2.97826e-08 trig=  2.87155e-08
tphl                =  1.35037e-09 targ=  1.09497e-07 trig=  1.08147e-07
i_vdd_avg           =  -1.67925e-06 from=  1.00000e-08 to=  3.30005e-07
power_avg_uw        =  3.22026e+00


Total analysis time (seconds) = 2.50846

Total elapsed time (seconds) = 2.778 

Total DRAM available = 16384.000 MB.
DRAM currently available =  108.078 MB.
Maximum ngspice program size =   25.734 MB.
Current ngspice program size =   25.734 MB.

