
Note: Compatibility modes selected: hs a


Circuit: SKY130 library cell oai21_1 A1_to_Y__A2=0,B1=1

option SCALE: Scale is set to 1e-06 for instance and model parameters
Doing analysis at TEMP = 83.941790 and TNOM = 27.000000

Using KLU as Direct Linear Solver
 Reference value :  2.68490e-08
 Reference value :  1.22815e-07
 Reference value :  2.22114e-07
 Reference value :  3.18790e-07
No. of Data Rows : 68030

  Measurements for Transient Analysis

tphl                =  1.34362e-09 targ=  2.62444e-08 trig=  2.49007e-08
tplh                =  2.96113e-09 targ=  9.96634e-08 trig=  9.67022e-08
i_vdd_avg           =  -2.38600e-06 from=  1.00000e-08 to=  3.30000e-07
power_avg_uw        =  4.35165e+00


Total analysis time (seconds) = 0.904988

Total elapsed time (seconds) = 1.083 

Total DRAM available = 16384.000 MB.
DRAM currently available =  211.344 MB.
Maximum ngspice program size =   25.109 MB.
Current ngspice program size =   25.109 MB.

