
Note: Compatibility modes selected: hs a


Circuit: SKY130 library cell mux2_4 A0_to_X__A1=0,S=0

option SCALE: Scale is set to 1e-06 for instance and model parameters
Doing analysis at TEMP = 90.110796 and TNOM = 27.000000

Using KLU as Direct Linear Solver
 Reference value :  0.00000e+00
 Reference value :  2.14114e-08
 Reference value :  4.24493e-08
 Reference value :  6.41393e-08
 Reference value :  8.50343e-08
 Reference value :  1.06399e-07
 Reference value :  1.27701e-07
 Reference value :  1.49241e-07
 Reference value :  1.70746e-07
 Reference value :  1.91848e-07
 Reference value :  2.13089e-07
 Reference value :  2.34294e-07
 Reference value :  2.55429e-07
 Reference value :  2.76611e-07
 Reference value :  2.97686e-07
 Reference value :  3.19096e-07
 Reference value :  3.39901e-07
No. of Data Rows : 68030

  Measurements for Transient Analysis

tplh                =  3.07053e-10 targ=  2.88930e-08 trig=  2.85859e-08
tphl                =  1.29433e-09 targ=  1.09052e-07 trig=  1.07758e-07
i_vdd_avg           =  -9.64216e-07 from=  1.00000e-08 to=  3.30001e-07
power_avg_uw        =  1.77463e+00


Total analysis time (seconds) = 4.13998

Total elapsed time (seconds) = 4.412 

Total DRAM available = 16384.000 MB.
DRAM currently available =  118.469 MB.
Maximum ngspice program size =   26.688 MB.
Current ngspice program size =   26.688 MB.

