
Note: Compatibility modes selected: hs a


Circuit: SKY130 library cell nor2_4 A_to_Y__B=0

option SCALE: Scale is set to 1e-06 for instance and model parameters
Doing analysis at TEMP = -8.653219 and TNOM = 27.000000

Using KLU as Direct Linear Solver
 Reference value :  1.17414e-08
 Reference value :  5.49493e-08
 Reference value :  9.64443e-08
 Reference value :  1.33471e-07
 Reference value :  1.73271e-07
 Reference value :  2.13549e-07
 Reference value :  2.56744e-07
 Reference value :  2.99301e-07
No. of Data Rows : 68030

  Measurements for Transient Analysis

tphl                =  3.31819e-10 targ=  2.54377e-08 trig=  2.51059e-08
tplh                =  9.70058e-10 targ=  9.82877e-08 trig=  9.73177e-08
i_vdd_avg           =  -1.78554e-06 from=  1.00000e-08 to=  3.30001e-07
power_avg_uw        =  3.43598e+00


Total analysis time (seconds) = 2.46799

Total elapsed time (seconds) = 2.646 

Total DRAM available = 16384.000 MB.
DRAM currently available =  244.984 MB.
Maximum ngspice program size =   28.594 MB.
Current ngspice program size =   10.453 MB.

