
Note: Compatibility modes selected: hs a


Circuit: SKY130 library cell aoi21_1 A1_to_Y__A2=1,B1=0

option SCALE: Scale is set to 1e-06 for instance and model parameters
Doing analysis at TEMP = 114.074620 and TNOM = 27.000000

Using KLU as Direct Linear Solver
 Reference value :  4.15845e-08
 Reference value :  1.38191e-07
 Reference value :  2.42369e-07
No. of Data Rows : 68030

  Measurements for Transient Analysis

tphl                =  1.05561e-09 targ=  2.76341e-08 trig=  2.65785e-08
tplh                =  1.79436e-09 targ=  1.03530e-07 trig=  1.01735e-07
i_vdd_avg           =  -7.46663e-07 from=  1.00000e-08 to=  3.30001e-07
power_avg_uw        =  1.31050e+00


Total analysis time (seconds) = 0.828744

Total elapsed time (seconds) = 0.993 

Total DRAM available = 16384.000 MB.
DRAM currently available =  221.312 MB.
Maximum ngspice program size =   24.953 MB.
Current ngspice program size =   24.953 MB.

