
Note: Compatibility modes selected: hs a


Circuit: SKY130 library cell inv_4 A_to_Y

option SCALE: Scale is set to 1e-06 for instance and model parameters
Doing analysis at TEMP = 55.321059 and TNOM = 27.000000

Using KLU as Direct Linear Solver
 Reference value :  2.51655e-08
 Reference value :  1.03889e-07
 Reference value :  1.85416e-07
 Reference value :  2.69529e-07
No. of Data Rows : 68034

  Measurements for Transient Analysis

tphl                =  1.30735e-10 targ=  2.41922e-08 trig=  2.40615e-08
tplh                =  2.69477e-10 targ=  9.44540e-08 trig=  9.41845e-08
i_vdd_avg           =  -1.22290e-06 from=  1.00000e-08 to=  3.30004e-07
power_avg_uw        =  2.00347e+00


Total analysis time (seconds) = 1.09403

Total elapsed time (seconds) = 1.257 

Total DRAM available = 16384.000 MB.
DRAM currently available =  179.828 MB.
Maximum ngspice program size =   26.719 MB.
Current ngspice program size =   26.719 MB.

