
Note: Compatibility modes selected: hs a


Circuit: SKY130 library cell nand3_4 A_to_Y__B=1,C=1

option SCALE: Scale is set to 1e-06 for instance and model parameters
Doing analysis at TEMP = 91.864158 and TNOM = 27.000000

Using KLU as Direct Linear Solver
 Reference value :  8.93140e-09
 Reference value :  3.72087e-08
 Reference value :  6.75137e-08
 Reference value :  9.57287e-08
 Reference value :  1.26650e-07
 Reference value :  1.54080e-07
 Reference value :  1.82130e-07
 Reference value :  2.10924e-07
 Reference value :  2.40594e-07
 Reference value :  2.69109e-07
 Reference value :  2.96390e-07
 Reference value :  3.26685e-07
No. of Data Rows : 68032

  Measurements for Transient Analysis

tphl                =  1.05083e-09 targ=  2.98239e-08 trig=  2.87731e-08
tplh                =  1.75830e-09 targ=  1.10078e-07 trig=  1.08319e-07
i_vdd_avg           =  -3.06454e-06 from=  1.00000e-08 to=  3.30005e-07
power_avg_uw        =  5.73835e+00


Total analysis time (seconds) = 3.10948

Total elapsed time (seconds) = 3.299 

Total DRAM available = 16384.000 MB.
DRAM currently available =  129.016 MB.
Maximum ngspice program size =   27.984 MB.
Current ngspice program size =   27.984 MB.

