
Note: Compatibility modes selected: hs a


Circuit: SKY130 library cell nand3_1 A_to_Y__B=1,C=1

option SCALE: Scale is set to 1e-06 for instance and model parameters
Doing analysis at TEMP = -11.953507 and TNOM = 27.000000

Using KLU as Direct Linear Solver
 Reference value :  3.50025e-08
 Reference value :  1.37404e-07
 Reference value :  2.41201e-07
No. of Data Rows : 68034

  Measurements for Transient Analysis

tphl                =  2.02746e-09 targ=  3.18391e-08 trig=  2.98116e-08
tplh                =  3.87268e-09 targ=  1.15308e-07 trig=  1.11435e-07
i_vdd_avg           =  -1.05398e-06 from=  1.00000e-08 to=  3.30004e-07
power_avg_uw        =  1.83342e+00


Total analysis time (seconds) = 0.870631

Total elapsed time (seconds) = 1.023 

Total DRAM available = 16384.000 MB.
DRAM currently available =  258.594 MB.
Maximum ngspice program size =   26.047 MB.
Current ngspice program size =   26.047 MB.

