
Note: Compatibility modes selected: hs a


Circuit: SKY130 library cell mux2_4 A0_to_X__A1=0,S=0

option SCALE: Scale is set to 1e-06 for instance and model parameters
Doing analysis at TEMP = 6.603369 and TNOM = 27.000000

Using KLU as Direct Linear Solver
 Reference value :  8.46640e-09
 Reference value :  4.74578e-08
 Reference value :  8.60578e-08
 Reference value :  1.21093e-07
 Reference value :  1.58408e-07
 Reference value :  1.89683e-07
 Reference value :  2.19338e-07
 Reference value :  2.44563e-07
 Reference value :  2.67498e-07
 Reference value :  2.89158e-07
 Reference value :  3.10368e-07
 Reference value :  3.31278e-07
No. of Data Rows : 68032

  Measurements for Transient Analysis

tplh                =  4.23611e-10 targ=  2.62512e-08 trig=  2.58276e-08
tphl                =  9.52670e-10 targ=  1.00436e-07 trig=  9.94829e-08
i_vdd_avg           =  -1.99978e-06 from=  1.00000e-08 to=  3.30003e-07
power_avg_uw        =  3.90106e+00


Total analysis time (seconds) = 924.403

Total elapsed time (seconds) = 924.575 

Total DRAM available = 16384.000 MB.
DRAM currently available =  162.781 MB.
Maximum ngspice program size =   27.938 MB.
Current ngspice program size =   27.938 MB.

