
Note: Compatibility modes selected: hs a


Circuit: SKY130 library cell aoi21_1 A1_to_Y__A2=1,B1=0

option SCALE: Scale is set to 1e-06 for instance and model parameters
Doing analysis at TEMP = -34.235178 and TNOM = 27.000000

Using KLU as Direct Linear Solver
 Reference value :  3.40101e-08
 Reference value :  1.41053e-07
 Reference value :  2.41955e-07
No. of Data Rows : 68034

  Measurements for Transient Analysis

tphl                =  2.30032e-10 targ=  2.43813e-08 trig=  2.41513e-08
tplh                =  7.55934e-10 targ=  9.52099e-08 trig=  9.44539e-08
i_vdd_avg           =  -3.70943e-07 from=  1.00000e-08 to=  3.30003e-07
power_avg_uw        =  6.21250e-01


Total analysis time (seconds) = 0.900062

Total elapsed time (seconds) = 1.067 

Total DRAM available = 16384.000 MB.
DRAM currently available =  108.656 MB.
Maximum ngspice program size =   28.203 MB.
Current ngspice program size =   28.203 MB.

