
Note: Compatibility modes selected: hs a


Circuit: SKY130 library cell mux2_1 A0_to_X__A1=0,S=0

option SCALE: Scale is set to 1e-06 for instance and model parameters
Doing analysis at TEMP = -6.236753 and TNOM = 27.000000

Using KLU as Direct Linear Solver
 Reference value :  1.78064e-08
 Reference value :  7.25498e-08
 Reference value :  1.28192e-07
 Reference value :  1.81672e-07
 Reference value :  2.37265e-07
 Reference value :  2.92667e-07
No. of Data Rows : 68030

  Measurements for Transient Analysis

tplh                =  1.50824e-09 targ=  3.07969e-08 trig=  2.92886e-08
tphl                =  2.36304e-09 targ=  1.12229e-07 trig=  1.09866e-07
i_vdd_avg           =  -2.02932e-06 from=  1.00000e-08 to=  3.30002e-07
power_avg_uw        =  3.52946e+00


Total analysis time (seconds) = 1.60172

Total elapsed time (seconds) = 1.770 

Total DRAM available = 16384.000 MB.
DRAM currently available =  277.844 MB.
Maximum ngspice program size =   24.344 MB.
Current ngspice program size =   24.344 MB.

