
Note: Compatibility modes selected: hs a


Circuit: SKY130 library cell oai21_1 A1_to_Y__A2=0,B1=1

option SCALE: Scale is set to 1e-06 for instance and model parameters
Doing analysis at TEMP = -24.199879 and TNOM = 27.000000

Using KLU as Direct Linear Solver
 Reference value :  4.01486e-08
 Reference value :  1.37565e-07
 Reference value :  2.36824e-07
No. of Data Rows : 68032

  Measurements for Transient Analysis

tphl                =  1.23840e-09 targ=  3.01039e-08 trig=  2.88655e-08
tplh                =  3.56447e-09 targ=  1.12161e-07 trig=  1.08597e-07
i_vdd_avg           =  -1.22183e-06 from=  1.00000e-08 to=  3.30005e-07
power_avg_uw        =  2.33393e+00


Total analysis time (seconds) = 0.940266

Total elapsed time (seconds) = 1.410 

Total DRAM available = 16384.000 MB.
DRAM currently available =  208.219 MB.
Maximum ngspice program size =   22.656 MB.
Current ngspice program size =   22.484 MB.

