
Note: Compatibility modes selected: hs a


Circuit: SKY130 library cell inv_4 A_to_Y

option SCALE: Scale is set to 1e-06 for instance and model parameters
Doing analysis at TEMP = -17.423279 and TNOM = 27.000000

Using KLU as Direct Linear Solver
 Reference value :  2.59825e-08
 Reference value :  1.02980e-07
 Reference value :  1.84418e-07
 Reference value :  2.66515e-07
No. of Data Rows : 68030

  Measurements for Transient Analysis

tphl                =  2.00338e-10 targ=  2.95613e-08 trig=  2.93610e-08
tplh                =  2.07259e-09 targ=  1.12156e-07 trig=  1.10083e-07
i_vdd_avg           =  -2.27541e-06 from=  1.00000e-08 to=  3.30002e-07
power_avg_uw        =  4.47271e+00


Total analysis time (seconds) = 1.13265

Total elapsed time (seconds) = 1.318 

Total DRAM available = 16384.000 MB.
DRAM currently available =  127.703 MB.
Maximum ngspice program size =   26.938 MB.
Current ngspice program size =   26.938 MB.

