
Note: Compatibility modes selected: hs a


Circuit: SKY130 library cell oai21_4 A1_to_Y__A2=0,B1=1

option SCALE: Scale is set to 1e-06 for instance and model parameters
Doing analysis at TEMP = 121.390490 and TNOM = 27.000000

Using KLU as Direct Linear Solver
 Reference value :  6.35640e-09
 Reference value :  3.53801e-08
 Reference value :  6.11851e-08
 Reference value :  8.85901e-08
 Reference value :  1.15253e-07
 Reference value :  1.42258e-07
 Reference value :  1.69808e-07
 Reference value :  1.96835e-07
 Reference value :  2.25090e-07
 Reference value :  2.55090e-07
 Reference value :  2.85883e-07
 Reference value :  3.14098e-07
 Reference value :  3.38813e-07
No. of Data Rows : 68034

  Measurements for Transient Analysis

tphl                =  6.20108e-10 targ=  2.72714e-08 trig=  2.66513e-08
tplh                =  1.33369e-09 targ=  1.03288e-07 trig=  1.01954e-07
i_vdd_avg           =  -2.60811e-06 from=  1.00000e-08 to=  3.30003e-07
power_avg_uw        =  4.94754e+00


Total analysis time (seconds) = 924.204

Total elapsed time (seconds) = 924.386 

Total DRAM available = 16384.000 MB.
DRAM currently available =  174.094 MB.
Maximum ngspice program size =   27.625 MB.
Current ngspice program size =   27.625 MB.

