
Note: Compatibility modes selected: hs a


Circuit: SKY130 library cell xor2_4 A_to_X__B=0

option SCALE: Scale is set to 1e-06 for instance and model parameters
Doing analysis at TEMP = 80.466495 and TNOM = 27.000000

Using KLU as Direct Linear Solver
 Reference value :  0.00000e+00
 Reference value :  9.85640e-09
 Reference value :  1.95964e-08
 Reference value :  2.94661e-08
 Reference value :  3.96461e-08
 Reference value :  4.99011e-08
 Reference value :  6.01961e-08
 Reference value :  7.03861e-08
 Reference value :  8.06861e-08
 Reference value :  9.25861e-08
 Reference value :  1.05540e-07
 Reference value :  1.19225e-07
 Reference value :  1.35025e-07
 Reference value :  1.51980e-07
 Reference value :  1.68810e-07
 Reference value :  1.85553e-07
 Reference value :  2.02916e-07
 Reference value :  2.22831e-07
 Reference value :  2.44701e-07
 Reference value :  2.67840e-07
 Reference value :  2.92390e-07
 Reference value :  3.17385e-07
No. of Data Rows : 68034

  Measurements for Transient Analysis

tplh                =  4.69847e-10 targ=  2.56592e-08 trig=  2.51893e-08
tphl                =  4.88550e-10 targ=  9.80565e-08 trig=  9.75679e-08
i_vdd_avg           =  -1.77673e-06 from=  1.00000e-08 to=  3.30005e-07
power_avg_uw        =  3.22573e+00


Total analysis time (seconds) = 5.55411

Total elapsed time (seconds) = 5.845 

Total DRAM available = 16384.000 MB.
DRAM currently available =  135.859 MB.
Maximum ngspice program size =   29.359 MB.
Current ngspice program size =   29.359 MB.

