
Note: Compatibility modes selected: hs a


Circuit: SKY130 library cell aoi21_4 A1_to_Y__A2=1,B1=0

option SCALE: Scale is set to 1e-06 for instance and model parameters
Doing analysis at TEMP = -34.611190 and TNOM = 27.000000

Using KLU as Direct Linear Solver
 Reference value :  7.72140e-09
 Reference value :  3.76326e-08
 Reference value :  6.92726e-08
 Reference value :  9.68426e-08
 Reference value :  1.23723e-07
 Reference value :  1.53023e-07
 Reference value :  1.79993e-07
 Reference value :  2.09373e-07
 Reference value :  2.38113e-07
 Reference value :  2.66603e-07
 Reference value :  2.94228e-07
 Reference value :  3.24398e-07
No. of Data Rows : 68032

  Measurements for Transient Analysis

tphl                =  3.64154e-10 targ=  2.50892e-08 trig=  2.47251e-08
tplh                =  8.51005e-10 targ=  9.70262e-08 trig=  9.61752e-08
i_vdd_avg           =  -1.62551e-06 from=  1.00000e-08 to=  3.30003e-07
power_avg_uw        =  3.03986e+00


Total analysis time (seconds) = 3.40425

Total elapsed time (seconds) = 3.576 

Total DRAM available = 16384.000 MB.
DRAM currently available =  178.359 MB.
Maximum ngspice program size =   25.547 MB.
Current ngspice program size =   10.938 MB.

