
Note: Compatibility modes selected: hs a


Circuit: SKY130 library cell nor2_4 A_to_Y__B=0

option SCALE: Scale is set to 1e-06 for instance and model parameters
Doing analysis at TEMP = -39.375609 and TNOM = 27.000000

Using KLU as Direct Linear Solver
 Reference value :  0.00000e+00
 Reference value :  2.40575e-08
 Reference value :  4.81690e-08
 Reference value :  7.25990e-08
 Reference value :  9.64190e-08
 Reference value :  1.20411e-07
 Reference value :  1.44326e-07
 Reference value :  1.68571e-07
 Reference value :  1.92579e-07
 Reference value :  2.16529e-07
 Reference value :  2.40369e-07
 Reference value :  2.64299e-07
 Reference value :  2.88946e-07
 Reference value :  3.12791e-07
 Reference value :  3.37206e-07
No. of Data Rows : 68030

  Measurements for Transient Analysis

tphl                =  6.22796e-10 targ=  2.76236e-08 trig=  2.70008e-08
tplh                =  2.22482e-09 targ=  1.05227e-07 trig=  1.03002e-07
i_vdd_avg           =  -2.34730e-06 from=  1.00000e-08 to=  3.30001e-07
power_avg_uw        =  4.32655e+00


Total analysis time (seconds) = 3.75973

Total elapsed time (seconds) = 4.022 

Total DRAM available = 16384.000 MB.
DRAM currently available =  108.078 MB.
Maximum ngspice program size =   27.188 MB.
Current ngspice program size =   27.188 MB.

