
Note: Compatibility modes selected: hs a


Circuit: SKY130 library cell xor2_4 A_to_X__B=0

option SCALE: Scale is set to 1e-06 for instance and model parameters
Doing analysis at TEMP = 50.860346 and TNOM = 27.000000

Using KLU as Direct Linear Solver
 Reference value :  4.54140e-09
 Reference value :  2.20864e-08
 Reference value :  3.79093e-08
 Reference value :  5.52543e-08
 Reference value :  7.21893e-08
 Reference value :  8.93893e-08
 Reference value :  1.06176e-07
 Reference value :  1.23636e-07
 Reference value :  1.41086e-07
 Reference value :  1.57911e-07
 Reference value :  1.75231e-07
 Reference value :  1.92254e-07
 Reference value :  2.08964e-07
 Reference value :  2.25394e-07
 Reference value :  2.41349e-07
 Reference value :  2.57649e-07
 Reference value :  2.74196e-07
 Reference value :  2.90746e-07
 Reference value :  3.07071e-07
 Reference value :  3.23566e-07
 Reference value :  3.39876e-07
No. of Data Rows : 68030

  Measurements for Transient Analysis

tplh                =  2.36755e-10 targ=  2.63676e-08 trig=  2.61309e-08
tphl                =  7.04954e-10 targ=  1.01098e-07 trig=  1.00393e-07
i_vdd_avg           =  -4.22425e-07 from=  1.00000e-08 to=  3.30001e-07
power_avg_uw        =  6.91501e-01


Total analysis time (seconds) = 5.23973

Total elapsed time (seconds) = 5.418 

Total DRAM available = 16384.000 MB.
DRAM currently available =  225.891 MB.
Maximum ngspice program size =   29.562 MB.
Current ngspice program size =   29.562 MB.

