
Note: Compatibility modes selected: hs a


Circuit: SKY130 library cell nand3_1 A_to_Y__B=1,C=1

option SCALE: Scale is set to 1e-06 for instance and model parameters
Doing analysis at TEMP = -18.394754 and TNOM = 27.000000

Using KLU as Direct Linear Solver
 Reference value :  3.15974e-08
 Reference value :  1.29037e-07
 Reference value :  2.37492e-07
No. of Data Rows : 68032

  Measurements for Transient Analysis

tphl                =  2.14228e-10 targ=  2.57017e-08 trig=  2.54874e-08
tplh                =  6.82220e-10 targ=  9.91445e-08 trig=  9.84623e-08
i_vdd_avg           =  -4.98650e-08 from=  1.00000e-08 to=  3.30002e-07
power_avg_uw        =  8.12363e-02


Total analysis time (seconds) = 0.849557

Total elapsed time (seconds) = 1.053 

Total DRAM available = 16384.000 MB.
DRAM currently available =  127.703 MB.
Maximum ngspice program size =   26.719 MB.
Current ngspice program size =   26.719 MB.

