
Note: Compatibility modes selected: hs a


Circuit: SKY130 library cell oai21_1 A1_to_Y__A2=0,B1=1

option SCALE: Scale is set to 1e-06 for instance and model parameters
Doing analysis at TEMP = 29.084129 and TNOM = 27.000000

Using KLU as Direct Linear Solver
 Reference value :  0.00000e+00
 Reference value :  5.76920e-08
 Reference value :  1.14812e-07
 Reference value :  1.71057e-07
 Reference value :  2.25882e-07
 Reference value :  2.82452e-07
 Reference value :  3.37807e-07
No. of Data Rows : 68032

  Measurements for Transient Analysis

tphl                =  9.75660e-10 targ=  3.09379e-08 trig=  2.99623e-08
tplh                =  2.99039e-09 targ=  1.14877e-07 trig=  1.11887e-07
i_vdd_avg           =  -4.78831e-07 from=  1.00000e-08 to=  3.30002e-07
power_avg_uw        =  8.25409e-01


Total analysis time (seconds) = 2.24026

Total elapsed time (seconds) = 2.508 

Total DRAM available = 16384.000 MB.
DRAM currently available =  150.109 MB.
Maximum ngspice program size =   25.438 MB.
Current ngspice program size =   25.438 MB.

