
Note: Compatibility modes selected: hs a


Circuit: SKY130 library cell mux2_1 A0_to_X__A1=0,S=0

option SCALE: Scale is set to 1e-06 for instance and model parameters
Doing analysis at TEMP = 43.154627 and TNOM = 27.000000

Using KLU as Direct Linear Solver
 Reference value :  0.00000e+00
 Reference value :  3.02872e-08
 Reference value :  6.14022e-08
 Reference value :  9.20822e-08
 Reference value :  1.23597e-07
 Reference value :  1.54152e-07
 Reference value :  1.85848e-07
 Reference value :  2.15962e-07
 Reference value :  2.47342e-07
 Reference value :  2.78192e-07
 Reference value :  3.09727e-07
No. of Data Rows : 68032

  Measurements for Transient Analysis

tplh                =  6.64967e-10 targ=  2.69598e-08 trig=  2.62948e-08
tphl                =  1.14365e-09 targ=  1.02028e-07 trig=  1.00885e-07
i_vdd_avg           =  -1.38510e-06 from=  1.00000e-08 to=  3.30002e-07
power_avg_uw        =  2.68503e+00


Total analysis time (seconds) = 2.84464

Total elapsed time (seconds) = 3.108 

Total DRAM available = 16384.000 MB.
DRAM currently available =  118.172 MB.
Maximum ngspice program size =   27.750 MB.
Current ngspice program size =   27.750 MB.

