
Note: Compatibility modes selected: hs a


Circuit: SKY130 library cell mux2_4 A0_to_X__A1=0,S=0

option SCALE: Scale is set to 1e-06 for instance and model parameters
Doing analysis at TEMP = 55.700553 and TNOM = 27.000000

Using KLU as Direct Linear Solver
 Reference value :  1.04914e-08
 Reference value :  5.06851e-08
 Reference value :  8.93901e-08
 Reference value :  1.27103e-07
 Reference value :  1.64288e-07
 Reference value :  2.01270e-07
 Reference value :  2.38415e-07
 Reference value :  2.74118e-07
 Reference value :  3.10933e-07
No. of Data Rows : 68034

  Measurements for Transient Analysis

tplh                =  8.05459e-10 targ=  2.84318e-08 trig=  2.76263e-08
tphl                =  1.65568e-09 targ=  1.06535e-07 trig=  1.04879e-07
i_vdd_avg           =  -1.33232e-06 from=  1.00000e-08 to=  3.30003e-07
power_avg_uw        =  2.15893e+00


Total analysis time (seconds) = 2.34975

Total elapsed time (seconds) = 2.536 

Total DRAM available = 16384.000 MB.
DRAM currently available =  277.766 MB.
Maximum ngspice program size =   26.234 MB.
Current ngspice program size =   26.234 MB.

