
Note: Compatibility modes selected: hs a


Circuit: SKY130 library cell oai21_4 A1_to_Y__A2=0,B1=1

option SCALE: Scale is set to 1e-06 for instance and model parameters
Doing analysis at TEMP = 85.095119 and TNOM = 27.000000

Using KLU as Direct Linear Solver
 Reference value :  7.41140e-09
 Reference value :  3.58523e-08
 Reference value :  6.46023e-08
 Reference value :  9.48523e-08
 Reference value :  1.24527e-07
 Reference value :  1.54262e-07
 Reference value :  1.82887e-07
 Reference value :  2.12672e-07
 Reference value :  2.42202e-07
 Reference value :  2.70957e-07
 Reference value :  3.00002e-07
 Reference value :  3.29572e-07
No. of Data Rows : 68032

  Measurements for Transient Analysis

tphl                =  3.96551e-10 targ=  2.80264e-08 trig=  2.76299e-08
tplh                =  1.22581e-09 targ=  1.06115e-07 trig=  1.04890e-07
i_vdd_avg           =  -6.75373e-07 from=  1.00000e-08 to=  3.30002e-07
power_avg_uw        =  1.11304e+00


Total analysis time (seconds) = 3.01424

Total elapsed time (seconds) = 3.214 

Total DRAM available = 16384.000 MB.
DRAM currently available =  277.844 MB.
Maximum ngspice program size =   26.562 MB.
Current ngspice program size =   26.562 MB.

