
Note: Compatibility modes selected: hs a


Circuit: SKY130 library cell aoi21_4 A1_to_Y__A2=1,B1=0

option SCALE: Scale is set to 1e-06 for instance and model parameters
Doing analysis at TEMP = 3.802891 and TNOM = 27.000000

Using KLU as Direct Linear Solver
 Reference value :  0.00000e+00
 Reference value :  1.63714e-08
 Reference value :  3.24693e-08
 Reference value :  4.91243e-08
 Reference value :  6.54393e-08
 Reference value :  8.18043e-08
 Reference value :  9.86193e-08
 Reference value :  1.14976e-07
 Reference value :  1.31521e-07
 Reference value :  1.47936e-07
 Reference value :  1.64391e-07
 Reference value :  1.80911e-07
 Reference value :  1.97499e-07
 Reference value :  2.13939e-07
 Reference value :  2.30479e-07
 Reference value :  2.46914e-07
 Reference value :  2.63349e-07
 Reference value :  2.79751e-07
 Reference value :  2.96001e-07
 Reference value :  3.12826e-07
 Reference value :  3.29316e-07
No. of Data Rows : 68030

  Measurements for Transient Analysis

tphl                =  3.42067e-10 targ=  2.73955e-08 trig=  2.70534e-08
tplh                =  1.42315e-09 targ=  1.04583e-07 trig=  1.03160e-07
i_vdd_avg           =  -1.48217e-06 from=  1.00000e-08 to=  3.30001e-07
power_avg_uw        =  2.86345e+00


Total analysis time (seconds) = 5.46913

Total elapsed time (seconds) = 5.795 

Total DRAM available = 16384.000 MB.
DRAM currently available =  110.500 MB.
Maximum ngspice program size =   26.938 MB.
Current ngspice program size =   26.938 MB.

