
Note: Compatibility modes selected: hs a


Circuit: SKY130 library cell inv_1 A_to_Y

option SCALE: Scale is set to 1e-06 for instance and model parameters
Doing analysis at TEMP = 102.146220 and TNOM = 27.000000

Using KLU as Direct Linear Solver
 Reference value :  0.00000e+00
 Reference value :  1.33761e-07
 Reference value :  2.64851e-07
No. of Data Rows : 68030

  Measurements for Transient Analysis

tphl                =  5.94557e-10 targ=  2.65429e-08 trig=  2.59483e-08
tplh                =  1.17315e-09 targ=  1.01018e-07 trig=  9.98449e-08
i_vdd_avg           =  -8.00355e-07 from=  1.00000e-08 to=  3.30001e-07
power_avg_uw        =  1.52378e+00


Total analysis time (seconds) = 0.669991

Total elapsed time (seconds) = 0.934 

Total DRAM available = 16384.000 MB.
DRAM currently available =  108.078 MB.
Maximum ngspice program size =   26.438 MB.
Current ngspice program size =   26.438 MB.

