
Note: Compatibility modes selected: hs a


Circuit: SKY130 library cell mux2_4 A0_to_X__A1=0,S=0

option SCALE: Scale is set to 1e-06 for instance and model parameters
Doing analysis at TEMP = 32.406794 and TNOM = 27.000000

Using KLU as Direct Linear Solver
 Reference value :  0.00000e+00
 Reference value :  2.04814e-08
 Reference value :  4.17817e-08
 Reference value :  6.30167e-08
 Reference value :  8.43467e-08
 Reference value :  1.05361e-07
 Reference value :  1.26616e-07
 Reference value :  1.48121e-07
 Reference value :  1.69736e-07
 Reference value :  1.90632e-07
 Reference value :  2.11877e-07
 Reference value :  2.33232e-07
 Reference value :  2.54367e-07
 Reference value :  2.75286e-07
 Reference value :  2.97076e-07
 Reference value :  3.18361e-07
 Reference value :  3.39811e-07
No. of Data Rows : 68032

  Measurements for Transient Analysis

tplh                =  4.61086e-10 targ=  2.53282e-08 trig=  2.48671e-08
tphl                =  7.28012e-10 targ=  9.73293e-08 trig=  9.66013e-08
i_vdd_avg           =  -1.05914e-06 from=  1.00000e-08 to=  3.30001e-07
power_avg_uw        =  1.83532e+00


Total analysis time (seconds) = 4.21436

Total elapsed time (seconds) = 4.488 

Total DRAM available = 16384.000 MB.
DRAM currently available =  131.750 MB.
Maximum ngspice program size =   27.234 MB.
Current ngspice program size =   27.234 MB.

