
Note: Compatibility modes selected: hs a


Circuit: SKY130 library cell oai21_1 A1_to_Y__A2=0,B1=1

option SCALE: Scale is set to 1e-06 for instance and model parameters
Doing analysis at TEMP = 118.986700 and TNOM = 27.000000

Using KLU as Direct Linear Solver
 Reference value :  4.53893e-08
 Reference value :  1.48316e-07
 Reference value :  2.49609e-07
No. of Data Rows : 68030

  Measurements for Transient Analysis

tphl                =  5.47860e-10 targ=  2.56588e-08 trig=  2.51109e-08
tplh                =  9.66674e-10 targ=  9.82994e-08 trig=  9.73327e-08
i_vdd_avg           =  -3.71657e-07 from=  1.00000e-08 to=  3.30001e-07
power_avg_uw        =  6.16500e-01


Total analysis time (seconds) = 0.863366

Total elapsed time (seconds) = 1.007 

Total DRAM available = 16384.000 MB.
DRAM currently available =  137.438 MB.
Maximum ngspice program size =   24.422 MB.
Current ngspice program size =   23.875 MB.

