
Note: Compatibility modes selected: hs a


Circuit: SKY130 library cell nand3_1 A_to_Y__B=1,C=1

option SCALE: Scale is set to 1e-06 for instance and model parameters
Doing analysis at TEMP = 71.334784 and TNOM = 27.000000

Using KLU as Direct Linear Solver
 Reference value :  3.25453e-08
 Reference value :  1.33713e-07
 Reference value :  2.41300e-07
No. of Data Rows : 68034

  Measurements for Transient Analysis

tphl                =  1.61289e-09 targ=  2.65043e-08 trig=  2.48914e-08
tplh                =  1.62630e-09 targ=  9.83005e-08 trig=  9.66742e-08
i_vdd_avg           =  -2.42265e-06 from=  1.00000e-08 to=  3.30003e-07
power_avg_uw        =  4.59655e+00


Total analysis time (seconds) = 0.833394

Total elapsed time (seconds) = 0.999 

Total DRAM available = 16384.000 MB.
DRAM currently available =  152.109 MB.
Maximum ngspice program size =   25.094 MB.
Current ngspice program size =   25.094 MB.

