
Note: Compatibility modes selected: hs a


Circuit: SKY130 library cell aoi21_1 A1_to_Y__A2=1,B1=0

option SCALE: Scale is set to 1e-06 for instance and model parameters
Doing analysis at TEMP = 65.865798 and TNOM = 27.000000

Using KLU as Direct Linear Solver
 Reference value :  3.20175e-08
 Reference value :  1.33313e-07
 Reference value :  2.32875e-07
 Reference value :  3.35753e-07
No. of Data Rows : 68034

  Measurements for Transient Analysis

tphl                =  2.18558e-09 targ=  3.10693e-08 trig=  2.88838e-08
tplh                =  4.16949e-09 targ=  1.12821e-07 trig=  1.08651e-07
i_vdd_avg           =  -2.59569e-06 from=  1.00000e-08 to=  3.30003e-07
power_avg_uw        =  5.08511e+00


Total analysis time (seconds) = 0.924339

Total elapsed time (seconds) = 1.086 

Total DRAM available = 16384.000 MB.
DRAM currently available =  129.016 MB.
Maximum ngspice program size =   28.828 MB.
Current ngspice program size =   28.828 MB.

