
Note: Compatibility modes selected: hs a


Circuit: SKY130 library cell aoi21_4 A1_to_Y__A2=1,B1=0

option SCALE: Scale is set to 1e-06 for instance and model parameters
Doing analysis at TEMP = 94.790004 and TNOM = 27.000000

Using KLU as Direct Linear Solver
 Reference value :  1.40814e-08
 Reference value :  4.38080e-08
 Reference value :  7.38230e-08
 Reference value :  1.03083e-07
 Reference value :  1.32719e-07
 Reference value :  1.61629e-07
 Reference value :  1.89853e-07
 Reference value :  2.18028e-07
 Reference value :  2.48638e-07
 Reference value :  2.77879e-07
 Reference value :  3.07009e-07
 Reference value :  3.35964e-07
No. of Data Rows : 68032

  Measurements for Transient Analysis

tphl                =  -1.05509e-10 targ=  2.88148e-08 trig=  2.89203e-08
tplh                =  7.53991e-10 targ=  1.09515e-07 trig=  1.08761e-07
i_vdd_avg           =  -7.00904e-07 from=  1.00000e-08 to=  3.30004e-07
power_avg_uw        =  1.21357e+00


Total analysis time (seconds) = 3.06257

Total elapsed time (seconds) = 3.197 

Total DRAM available = 16384.000 MB.
DRAM currently available =  137.438 MB.
Maximum ngspice program size =   28.984 MB.
Current ngspice program size =   28.984 MB.

