
Note: Compatibility modes selected: hs a


Circuit: SKY130 library cell aoi21_4 A1_to_Y__A2=1,B1=0

option SCALE: Scale is set to 1e-06 for instance and model parameters
Doing analysis at TEMP = 105.160500 and TNOM = 27.000000

Using KLU as Direct Linear Solver
 Reference value :  7.67140e-09
 Reference value :  3.64018e-08
 Reference value :  6.43918e-08
 Reference value :  9.46418e-08
 Reference value :  1.26206e-07
 Reference value :  1.55501e-07
 Reference value :  1.83991e-07
 Reference value :  2.12212e-07
 Reference value :  2.39182e-07
 Reference value :  2.68471e-07
 Reference value :  2.96791e-07
 Reference value :  3.24501e-07
No. of Data Rows : 68032

  Measurements for Transient Analysis

tphl                =  7.72050e-10 targ=  2.66592e-08 trig=  2.58872e-08
tplh                =  1.32465e-09 targ=  1.00986e-07 trig=  9.96615e-08
i_vdd_avg           =  -1.56370e-06 from=  1.00000e-08 to=  3.30001e-07
power_avg_uw        =  2.56029e+00


Total analysis time (seconds) = 3.07001

Total elapsed time (seconds) = 3.241 

Total DRAM available = 16384.000 MB.
DRAM currently available =  277.766 MB.
Maximum ngspice program size =   26.516 MB.
Current ngspice program size =   26.516 MB.

