
Note: Compatibility modes selected: hs a


Circuit: SKY130 library cell xor2_1 A_to_X__B=0

option SCALE: Scale is set to 1e-06 for instance and model parameters
Doing analysis at TEMP = 90.929177 and TNOM = 27.000000

Using KLU as Direct Linear Solver
 Reference value :  1.87714e-08
 Reference value :  7.57898e-08
 Reference value :  1.41572e-07
 Reference value :  2.06340e-07
 Reference value :  2.68797e-07
 Reference value :  3.33802e-07
No. of Data Rows : 68030

  Measurements for Transient Analysis

tplh                =  3.91796e-10 targ=  2.65879e-08 trig=  2.61961e-08
tphl                =  6.51181e-10 targ=  1.01240e-07 trig=  1.00588e-07
i_vdd_avg           =  -7.13881e-07 from=  1.00000e-08 to=  3.30002e-07
power_avg_uw        =  1.39830e+00


Total analysis time (seconds) = 1.38549

Total elapsed time (seconds) = 1.580 

Total DRAM available = 16384.000 MB.
DRAM currently available =  244.984 MB.
Maximum ngspice program size =   27.547 MB.
Current ngspice program size =   27.547 MB.

