
Note: Compatibility modes selected: hs a


Circuit: SKY130 library cell xor2_1 A_to_X__B=0

option SCALE: Scale is set to 1e-06 for instance and model parameters
Doing analysis at TEMP = 5.397263 and TNOM = 27.000000

Using KLU as Direct Linear Solver
 Reference value :  1.50364e-08
 Reference value :  7.53103e-08
 Reference value :  1.35923e-07
 Reference value :  1.98170e-07
 Reference value :  2.59930e-07
 Reference value :  3.21163e-07
No. of Data Rows : 68034

  Measurements for Transient Analysis

tplh                =  -9.56572e-11 targ=  2.97283e-08 trig=  2.98239e-08
tphl                =  1.41849e-09 targ=  1.12890e-07 trig=  1.11472e-07
i_vdd_avg           =  -2.21380e-07 from=  1.00000e-08 to=  3.30003e-07
power_avg_uw        =  3.93423e-01


Total analysis time (seconds) = 1.43841

Total elapsed time (seconds) = 1.615 

Total DRAM available = 16384.000 MB.
DRAM currently available =  225.891 MB.
Maximum ngspice program size =   24.812 MB.
Current ngspice program size =   24.812 MB.

