
Note: Compatibility modes selected: hs a


Circuit: SKY130 library cell nand2_1 A_to_Y__B=1

option SCALE: Scale is set to 1e-06 for instance and model parameters
Doing analysis at TEMP = 116.828690 and TNOM = 27.000000

Using KLU as Direct Linear Solver
 Reference value :  4.21898e-08
 Reference value :  2.02240e-07
No. of Data Rows : 68030

  Measurements for Transient Analysis

tphl                =  1.03208e-09 targ=  3.05807e-08 trig=  2.95486e-08
tplh                =  1.88442e-09 targ=  1.12530e-07 trig=  1.10646e-07
i_vdd_avg           =  -5.37542e-07 from=  1.00000e-08 to=  3.30002e-07
power_avg_uw        =  9.03151e-01


Total analysis time (seconds) = 0.613489

Total elapsed time (seconds) = 0.794 

Total DRAM available = 16384.000 MB.
DRAM currently available =  255.641 MB.
Maximum ngspice program size =   26.375 MB.
Current ngspice program size =   26.375 MB.

