
Note: Compatibility modes selected: hs a


Circuit: SKY130 library cell nor2_4 A_to_Y__B=0

option SCALE: Scale is set to 1e-06 for instance and model parameters
Doing analysis at TEMP = 107.493400 and TNOM = 27.000000

Using KLU as Direct Linear Solver
 Reference value :  1.81264e-08
 Reference value :  6.30629e-08
 Reference value :  1.04493e-07
 Reference value :  1.45243e-07
 Reference value :  1.90993e-07
 Reference value :  2.36178e-07
 Reference value :  2.80833e-07
 Reference value :  3.27493e-07
No. of Data Rows : 68032

  Measurements for Transient Analysis

tphl                =  4.90608e-10 targ=  2.99958e-08 trig=  2.95052e-08
tplh                =  1.84089e-09 targ=  1.12356e-07 trig=  1.10516e-07
i_vdd_avg           =  -1.71319e-06 from=  1.00000e-08 to=  3.30003e-07
power_avg_uw        =  2.94215e+00


Total analysis time (seconds) = 2.03076

Total elapsed time (seconds) = 2.199 

Total DRAM available = 16384.000 MB.
DRAM currently available =  129.016 MB.
Maximum ngspice program size =   26.000 MB.
Current ngspice program size =   26.000 MB.

