
Note: Compatibility modes selected: hs a


Circuit: SKY130 library cell mux2_4 A0_to_X__A1=0,S=0

option SCALE: Scale is set to 1e-06 for instance and model parameters
Doing analysis at TEMP = -38.192253 and TNOM = 27.000000

Using KLU as Direct Linear Solver
 Reference value :  1.26564e-08
 Reference value :  5.08014e-08
 Reference value :  9.00064e-08
 Reference value :  1.28330e-07
 Reference value :  1.64975e-07
 Reference value :  1.97516e-07
 Reference value :  2.34801e-07
 Reference value :  2.72030e-07
 Reference value :  3.13960e-07
No. of Data Rows : 68032

  Measurements for Transient Analysis

tplh                =  7.60443e-10 targ=  2.67774e-08 trig=  2.60170e-08
tphl                =  1.37683e-09 targ=  1.01428e-07 trig=  1.00051e-07
i_vdd_avg           =  -2.25689e-06 from=  1.00000e-08 to=  3.30000e-07
power_avg_uw        =  3.95660e+00


Total analysis time (seconds) = 2.39604

Total elapsed time (seconds) = 2.573 

Total DRAM available = 16384.000 MB.
DRAM currently available =  137.438 MB.
Maximum ngspice program size =   25.422 MB.
Current ngspice program size =   25.422 MB.

