
Note: Compatibility modes selected: hs a


Circuit: SKY130 library cell nor2_1 A_to_Y__B=0

option SCALE: Scale is set to 1e-06 for instance and model parameters
Doing analysis at TEMP = 13.746237 and TNOM = 27.000000

Using KLU as Direct Linear Solver
 Reference value :  0.00000e+00
 Reference value :  8.15629e-08
 Reference value :  1.60163e-07
 Reference value :  2.42043e-07
 Reference value :  3.23688e-07
No. of Data Rows : 68032

  Measurements for Transient Analysis

tphl                =  6.26045e-10 targ=  2.69638e-08 trig=  2.63377e-08
tplh                =  1.77475e-09 targ=  1.02788e-07 trig=  1.01013e-07
i_vdd_avg           =  -4.39165e-07 from=  1.00000e-08 to=  3.30003e-07
power_avg_uw        =  7.55934e-01


Total analysis time (seconds) = 1.08782

Total elapsed time (seconds) = 1.347 

Total DRAM available = 16384.000 MB.
DRAM currently available =   98.500 MB.
Maximum ngspice program size =   25.688 MB.
Current ngspice program size =   25.688 MB.

