
Note: Compatibility modes selected: hs a


Circuit: SKY130 library cell mux2_1 A0_to_X__A1=0,S=0

option SCALE: Scale is set to 1e-06 for instance and model parameters
Doing analysis at TEMP = -15.524652 and TNOM = 27.000000

Using KLU as Direct Linear Solver
 Reference value :  1.61464e-08
 Reference value :  6.75832e-08
 Reference value :  1.22159e-07
 Reference value :  1.79539e-07
 Reference value :  2.37293e-07
 Reference value :  2.94379e-07
No. of Data Rows : 68032

  Measurements for Transient Analysis

tplh                =  2.53443e-10 targ=  2.58313e-08 trig=  2.55779e-08
tphl                =  7.88698e-10 targ=  9.95223e-08 trig=  9.87336e-08
i_vdd_avg           =  -6.89960e-08 from=  1.00000e-08 to=  3.30004e-07
power_avg_uw        =  1.20555e-01


Total analysis time (seconds) = 1.58109

Total elapsed time (seconds) = 1.743 

Total DRAM available = 16384.000 MB.
DRAM currently available =  179.828 MB.
Maximum ngspice program size =   26.453 MB.
Current ngspice program size =   26.453 MB.

