
Note: Compatibility modes selected: hs a


Circuit: SKY130 library cell aoi21_4 A1_to_Y__A2=1,B1=0

option SCALE: Scale is set to 1e-06 for instance and model parameters
Doing analysis at TEMP = 29.379917 and TNOM = 27.000000

Using KLU as Direct Linear Solver
 Reference value :  6.81640e-09
 Reference value :  3.44525e-08
 Reference value :  6.15457e-08
 Reference value :  8.87007e-08
 Reference value :  1.14291e-07
 Reference value :  1.44859e-07
 Reference value :  1.74114e-07
 Reference value :  2.03091e-07
 Reference value :  2.28936e-07
 Reference value :  2.51071e-07
 Reference value :  2.71176e-07
 Reference value :  2.89779e-07
 Reference value :  3.06714e-07
 Reference value :  3.23279e-07
 Reference value :  3.39539e-07
No. of Data Rows : 68034

  Measurements for Transient Analysis

tphl                =  9.83655e-11 targ=  2.98875e-08 trig=  2.97891e-08
tplh                =  1.75634e-09 targ=  1.13124e-07 trig=  1.11367e-07
i_vdd_avg           =  -1.21316e-06 from=  1.00000e-08 to=  3.30004e-07
power_avg_uw        =  2.25373e+00


Total analysis time (seconds) = 925.047

Total elapsed time (seconds) = 925.224 

Total DRAM available = 16384.000 MB.
DRAM currently available =  162.781 MB.
Maximum ngspice program size =   28.672 MB.
Current ngspice program size =   28.672 MB.

