
Note: Compatibility modes selected: hs a


Circuit: SKY130 library cell inv_1 A_to_Y

option SCALE: Scale is set to 1e-06 for instance and model parameters
Doing analysis at TEMP = 56.299901 and TNOM = 27.000000

Using KLU as Direct Linear Solver
 Reference value :  0.00000e+00
 Reference value :  1.32588e-07
 Reference value :  2.67895e-07
No. of Data Rows : 68034

  Measurements for Transient Analysis

tphl                =  1.48516e-09 targ=  3.01841e-08 trig=  2.86989e-08
tplh                =  3.12871e-09 targ=  1.11226e-07 trig=  1.08097e-07
i_vdd_avg           =  -1.25459e-06 from=  1.00000e-08 to=  3.30003e-07
power_avg_uw        =  2.17644e+00


Total analysis time (seconds) = 0.677915

Total elapsed time (seconds) = 0.937 

Total DRAM available = 16384.000 MB.
DRAM currently available =  146.109 MB.
Maximum ngspice program size =   24.531 MB.
Current ngspice program size =   24.531 MB.

