
Note: Compatibility modes selected: hs a


Circuit: SKY130 library cell aoi21_1 A1_to_Y__A2=1,B1=0

option SCALE: Scale is set to 1e-06 for instance and model parameters
Doing analysis at TEMP = 26.975200 and TNOM = 27.000000

Using KLU as Direct Linear Solver
 Reference value :  0.00000e+00
 Reference value :  5.52763e-08
 Reference value :  1.10500e-07
 Reference value :  1.65825e-07
 Reference value :  2.22856e-07
 Reference value :  2.79325e-07
 Reference value :  3.36445e-07
No. of Data Rows : 68032

  Measurements for Transient Analysis

tphl                =  1.06034e-09 targ=  2.68897e-08 trig=  2.58294e-08
tplh                =  2.13068e-09 targ=  1.01619e-07 trig=  9.94882e-08
i_vdd_avg           =  -1.19438e-06 from=  1.00000e-08 to=  3.30000e-07
power_avg_uw        =  2.22391e+00


Total analysis time (seconds) = 1.90883

Total elapsed time (seconds) = 2.347 

Total DRAM available = 16384.000 MB.
DRAM currently available =  131.750 MB.
Maximum ngspice program size =   23.797 MB.
Current ngspice program size =   23.797 MB.

