
Note: Compatibility modes selected: hs a


Circuit: SKY130 library cell oai21_1 A1_to_Y__A2=0,B1=1

option SCALE: Scale is set to 1e-06 for instance and model parameters
Doing analysis at TEMP = 54.862343 and TNOM = 27.000000

Using KLU as Direct Linear Solver
 Reference value :  0.00000e+00
 Reference value :  5.65835e-08
 Reference value :  1.13849e-07
 Reference value :  1.71059e-07
 Reference value :  2.26193e-07
 Reference value :  2.81884e-07
 Reference value :  3.39574e-07
No. of Data Rows : 68032

  Measurements for Transient Analysis

tphl                =  1.54884e-09 targ=  2.92843e-08 trig=  2.77355e-08
tplh                =  3.25463e-09 targ=  1.08461e-07 trig=  1.05206e-07
i_vdd_avg           =  -1.31830e-06 from=  1.00000e-08 to=  3.30004e-07
power_avg_uw        =  2.34410e+00


Total analysis time (seconds) = 1.62507

Total elapsed time (seconds) = 1.889 

Total DRAM available = 16384.000 MB.
DRAM currently available =   98.031 MB.
Maximum ngspice program size =   25.688 MB.
Current ngspice program size =   25.688 MB.

