
Note: Compatibility modes selected: hs a


Circuit: SKY130 library cell nor2_4 A_to_Y__B=0

option SCALE: Scale is set to 1e-06 for instance and model parameters
Doing analysis at TEMP = 43.492077 and TNOM = 27.000000

Using KLU as Direct Linear Solver
 Reference value :  1.03664e-08
 Reference value :  5.18004e-08
 Reference value :  8.94654e-08
 Reference value :  1.28758e-07
 Reference value :  1.69838e-07
 Reference value :  2.08985e-07
 Reference value :  2.49235e-07
 Reference value :  2.89843e-07
 Reference value :  3.28718e-07
No. of Data Rows : 68034

  Measurements for Transient Analysis

tphl                =  7.78637e-11 targ=  2.41918e-08 trig=  2.41140e-08
tplh                =  1.90737e-10 targ=  9.45326e-08 trig=  9.43419e-08
i_vdd_avg           =  -4.22956e-07 from=  1.00000e-08 to=  3.30003e-07
power_avg_uw        =  7.47633e-01


Total analysis time (seconds) = 2.16988

Total elapsed time (seconds) = 2.359 

Total DRAM available = 16384.000 MB.
DRAM currently available =  225.891 MB.
Maximum ngspice program size =   27.469 MB.
Current ngspice program size =   27.469 MB.

