
Note: Compatibility modes selected: hs a


Circuit: SKY130 library cell nor2_4 A_to_Y__B=0

option SCALE: Scale is set to 1e-06 for instance and model parameters
Doing analysis at TEMP = 20.153711 and TNOM = 27.000000

Using KLU as Direct Linear Solver
 Reference value :  2.01400e-10
 Reference value :  2.52575e-08
 Reference value :  4.97435e-08
 Reference value :  7.41685e-08
 Reference value :  9.79085e-08
 Reference value :  1.22304e-07
 Reference value :  1.46244e-07
 Reference value :  1.70309e-07
 Reference value :  1.94113e-07
 Reference value :  2.17858e-07
 Reference value :  2.41628e-07
 Reference value :  2.66293e-07
 Reference value :  2.90459e-07
 Reference value :  3.14804e-07
 Reference value :  3.38624e-07
No. of Data Rows : 68032

  Measurements for Transient Analysis

tphl                =  5.69017e-11 targ=  2.75849e-08 trig=  2.75280e-08
tplh                =  1.24536e-09 targ=  1.05829e-07 trig=  1.04584e-07
i_vdd_avg           =  -1.09034e-06 from=  1.00000e-08 to=  3.30004e-07
power_avg_uw        =  2.08706e+00


Total analysis time (seconds) = 4.43945

Total elapsed time (seconds) = 4.683 

Total DRAM available = 16384.000 MB.
DRAM currently available =  146.109 MB.
Maximum ngspice program size =   24.922 MB.
Current ngspice program size =   24.922 MB.

