
Note: Compatibility modes selected: hs a


Circuit: SKY130 library cell oai21_4 A1_to_Y__A2=0,B1=1

option SCALE: Scale is set to 1e-06 for instance and model parameters
Doing analysis at TEMP = -29.570520 and TNOM = 27.000000

Using KLU as Direct Linear Solver
 Reference value :  0.00000e+00
 Reference value :  1.61814e-08
 Reference value :  3.22963e-08
 Reference value :  4.84763e-08
 Reference value :  6.45613e-08
 Reference value :  8.07413e-08
 Reference value :  9.65263e-08
 Reference value :  1.12885e-07
 Reference value :  1.29260e-07
 Reference value :  1.45585e-07
 Reference value :  1.62080e-07
 Reference value :  1.78480e-07
 Reference value :  1.94896e-07
 Reference value :  2.11326e-07
 Reference value :  2.27736e-07
 Reference value :  2.44041e-07
 Reference value :  2.60550e-07
 Reference value :  2.77185e-07
 Reference value :  2.93450e-07
 Reference value :  3.09770e-07
 Reference value :  3.25980e-07
No. of Data Rows : 68032

  Measurements for Transient Analysis

tphl                =  3.49162e-10 targ=  2.50410e-08 trig=  2.46919e-08
tplh                =  8.39852e-10 targ=  9.69155e-08 trig=  9.60756e-08
i_vdd_avg           =  -1.20952e-06 from=  1.00000e-08 to=  3.30000e-07
power_avg_uw        =  2.11688e+00


Total analysis time (seconds) = 5.99161

Total elapsed time (seconds) = 6.375 

Total DRAM available = 16384.000 MB.
DRAM currently available =  108.781 MB.
Maximum ngspice program size =   25.984 MB.
Current ngspice program size =   25.984 MB.

