
Note: Compatibility modes selected: hs a


Circuit: SKY130 library cell nand2_4 A_to_Y__B=1

option SCALE: Scale is set to 1e-06 for instance and model parameters
Doing analysis at TEMP = -33.742881 and TNOM = 27.000000

Using KLU as Direct Linear Solver
 Reference value :  1.82164e-08
 Reference value :  6.18954e-08
 Reference value :  1.01300e-07
 Reference value :  1.42608e-07
 Reference value :  1.77178e-07
 Reference value :  2.07735e-07
 Reference value :  2.36300e-07
 Reference value :  2.62955e-07
 Reference value :  2.87918e-07
 Reference value :  3.12363e-07
 Reference value :  3.36253e-07
No. of Data Rows : 68034

  Measurements for Transient Analysis

tphl                =  7.95836e-10 targ=  2.77873e-08 trig=  2.69914e-08
tplh                =  1.95225e-09 targ=  1.04927e-07 trig=  1.02974e-07
i_vdd_avg           =  -1.86847e-06 from=  1.00000e-08 to=  3.30003e-07
power_avg_uw        =  3.28072e+00


Total analysis time (seconds) = 3.23417

Total elapsed time (seconds) = 924.298 

Total DRAM available = 16384.000 MB.
DRAM currently available =  162.781 MB.
Maximum ngspice program size =   25.797 MB.
Current ngspice program size =   25.797 MB.

