
Note: Compatibility modes selected: hs a


Circuit: SKY130 library cell xor2_4 A_to_X__B=0

option SCALE: Scale is set to 1e-06 for instance and model parameters
Doing analysis at TEMP = -23.468941 and TNOM = 27.000000

Using KLU as Direct Linear Solver
 Reference value :  5.10640e-09
 Reference value :  2.26114e-08
 Reference value :  4.06959e-08
 Reference value :  5.80959e-08
 Reference value :  7.62559e-08
 Reference value :  9.30459e-08
 Reference value :  1.10801e-07
 Reference value :  1.27374e-07
 Reference value :  1.44809e-07
 Reference value :  1.61839e-07
 Reference value :  1.79049e-07
 Reference value :  1.97366e-07
 Reference value :  2.15846e-07
 Reference value :  2.32101e-07
 Reference value :  2.49296e-07
 Reference value :  2.64216e-07
 Reference value :  2.81649e-07
 Reference value :  2.99514e-07
 Reference value :  3.17284e-07
 Reference value :  3.33899e-07
No. of Data Rows : 68034

  Measurements for Transient Analysis

tplh                =  -2.27271e-10 targ=  2.91819e-08 trig=  2.94092e-08
tphl                =  1.30316e-09 targ=  1.11531e-07 trig=  1.10228e-07
i_vdd_avg           =  -1.72230e-06 from=  1.00000e-08 to=  3.30004e-07
power_avg_uw        =  3.41010e+00


Total analysis time (seconds) = 5.43021

Total elapsed time (seconds) = 5.616 

Total DRAM available = 16384.000 MB.
DRAM currently available =  244.984 MB.
Maximum ngspice program size =   26.719 MB.
Current ngspice program size =   13.594 MB.

