
Note: Compatibility modes selected: hs a


Circuit: SKY130 library cell oai21_4 A1_to_Y__A2=0,B1=1

option SCALE: Scale is set to 1e-06 for instance and model parameters
Doing analysis at TEMP = -2.344694 and TNOM = 27.000000

Using KLU as Direct Linear Solver
 Reference value :  8.26640e-09
 Reference value :  3.56950e-08
 Reference value :  6.41150e-08
 Reference value :  9.42750e-08
 Reference value :  1.23318e-07
 Reference value :  1.51643e-07
 Reference value :  1.80888e-07
 Reference value :  2.10595e-07
 Reference value :  2.38290e-07
 Reference value :  2.68853e-07
 Reference value :  2.97858e-07
 Reference value :  3.27698e-07
No. of Data Rows : 68034

  Measurements for Transient Analysis

tphl                =  4.42691e-10 targ=  2.57115e-08 trig=  2.52688e-08
tplh                =  1.09839e-09 targ=  9.89047e-08 trig=  9.78063e-08
i_vdd_avg           =  -2.26221e-06 from=  1.00000e-08 to=  3.30003e-07
power_avg_uw        =  4.46382e+00


Total analysis time (seconds) = 3.05869

Total elapsed time (seconds) = 3.234 

Total DRAM available = 16384.000 MB.
DRAM currently available =  179.828 MB.
Maximum ngspice program size =   26.438 MB.
Current ngspice program size =   26.438 MB.

