
Note: Compatibility modes selected: hs a


Circuit: SKY130 library cell nand2_1 A_to_Y__B=1

option SCALE: Scale is set to 1e-06 for instance and model parameters
Doing analysis at TEMP = -12.464446 and TNOM = 27.000000

Using KLU as Direct Linear Solver
 Reference value :  0.00000e+00
 Reference value :  8.03934e-08
 Reference value :  1.62289e-07
 Reference value :  2.44043e-07
 Reference value :  3.24384e-07
No. of Data Rows : 68032

  Measurements for Transient Analysis

tphl                =  5.81529e-10 targ=  2.51695e-08 trig=  2.45879e-08
tplh                =  8.93113e-10 targ=  9.66569e-08 trig=  9.57638e-08
i_vdd_avg           =  -1.09066e-06 from=  1.00000e-08 to=  3.30004e-07
power_avg_uw        =  2.09262e+00


Total analysis time (seconds) = 1.1162

Total elapsed time (seconds) = 1.369 

Total DRAM available = 16384.000 MB.
DRAM currently available =  139.594 MB.
Maximum ngspice program size =   27.141 MB.
Current ngspice program size =   27.141 MB.

