
Note: Compatibility modes selected: hs a


Circuit: SKY130 library cell oai21_1 A1_to_Y__A2=0,B1=1

option SCALE: Scale is set to 1e-06 for instance and model parameters
Doing analysis at TEMP = 2.653056 and TNOM = 27.000000

Using KLU as Direct Linear Solver
 Reference value :  0.00000e+00
 Reference value :  5.76743e-08
 Reference value :  1.14661e-07
 Reference value :  1.72111e-07
 Reference value :  2.29864e-07
 Reference value :  2.86586e-07
No. of Data Rows : 68030

  Measurements for Transient Analysis

tphl                =  1.29611e-09 targ=  2.80745e-08 trig=  2.67784e-08
tplh                =  2.99665e-09 targ=  1.05332e-07 trig=  1.02335e-07
i_vdd_avg           =  -1.85480e-06 from=  1.00000e-08 to=  3.30001e-07
power_avg_uw        =  3.64680e+00


Total analysis time (seconds) = 1.58839

Total elapsed time (seconds) = 1.841 

Total DRAM available = 16384.000 MB.
DRAM currently available =   81.969 MB.
Maximum ngspice program size =   26.266 MB.
Current ngspice program size =   26.266 MB.

