
Note: Compatibility modes selected: hs a


Circuit: SKY130 library cell inv_1 A_to_Y

option SCALE: Scale is set to 1e-06 for instance and model parameters
Doing analysis at TEMP = -0.522054 and TNOM = 27.000000

Using KLU as Direct Linear Solver
 Reference value :  8.31869e-08
 Reference value :  3.31326e-07
No. of Data Rows : 68032

  Measurements for Transient Analysis

tphl                =  2.37473e-09 targ=  3.22344e-08 trig=  2.98597e-08
tplh                =  5.03464e-09 targ=  1.16614e-07 trig=  1.11579e-07
i_vdd_avg           =  -1.66573e-06 from=  1.00000e-08 to=  3.30001e-07
power_avg_uw        =  2.74044e+00


Total analysis time (seconds) = 0.376953

Total elapsed time (seconds) = 0.536 

Total DRAM available = 16384.000 MB.
DRAM currently available =  255.641 MB.
Maximum ngspice program size =   26.156 MB.
Current ngspice program size =   26.156 MB.

