
Note: Compatibility modes selected: hs a


Circuit: SKY130 library cell xor2_4 A_to_X__B=0

option SCALE: Scale is set to 1e-06 for instance and model parameters
Doing analysis at TEMP = 1.426545 and TNOM = 27.000000

Using KLU as Direct Linear Solver
 Reference value :  0.00000e+00
 Reference value :  9.89140e-09
 Reference value :  2.00514e-08
 Reference value :  3.01575e-08
 Reference value :  4.02947e-08
 Reference value :  5.03647e-08
 Reference value :  6.04497e-08
 Reference value :  7.04297e-08
 Reference value :  8.02797e-08
 Reference value :  9.01547e-08
 Reference value :  1.00170e-07
 Reference value :  1.10020e-07
 Reference value :  1.20132e-07
 Reference value :  1.30087e-07
 Reference value :  1.40117e-07
 Reference value :  1.49992e-07
 Reference value :  1.60092e-07
 Reference value :  1.69962e-07
 Reference value :  1.79987e-07
 Reference value :  1.89843e-07
 Reference value :  1.99840e-07
 Reference value :  2.10015e-07
 Reference value :  2.19995e-07
 Reference value :  2.29820e-07
 Reference value :  2.39845e-07
 Reference value :  2.49935e-07
 Reference value :  2.59955e-07
 Reference value :  2.69850e-07
 Reference value :  2.79817e-07
 Reference value :  2.89847e-07
 Reference value :  2.99857e-07
 Reference value :  3.09742e-07
 Reference value :  3.19842e-07
 Reference value :  3.29862e-07
 Reference value :  3.39792e-07
No. of Data Rows : 68030

  Measurements for Transient Analysis

tplh                =  5.09708e-10 targ=  2.96433e-08 trig=  2.91336e-08
tphl                =  1.73511e-09 targ=  1.11136e-07 trig=  1.09401e-07
i_vdd_avg           =  -2.85265e-07 from=  1.00000e-08 to=  3.30002e-07
power_avg_uw        =  5.00534e-01


Total analysis time (seconds) = 8.76282

Total elapsed time (seconds) = 9.059 

Total DRAM available = 16384.000 MB.
DRAM currently available =  138.938 MB.
Maximum ngspice program size =   28.234 MB.
Current ngspice program size =   28.234 MB.

