
Note: Compatibility modes selected: hs a


Circuit: SKY130 library cell inv_1 A_to_Y

option SCALE: Scale is set to 1e-06 for instance and model parameters
Doing analysis at TEMP = 71.536617 and TNOM = 27.000000

Using KLU as Direct Linear Solver
 Reference value :  0.00000e+00
 Reference value :  1.33169e-07
 Reference value :  2.68696e-07
No. of Data Rows : 68034

  Measurements for Transient Analysis

tphl                =  2.16342e-09 targ=  3.04624e-08 trig=  2.82990e-08
tplh                =  3.50660e-09 targ=  1.10404e-07 trig=  1.06897e-07
i_vdd_avg           =  -1.77771e-06 from=  1.00000e-08 to=  3.30004e-07
power_avg_uw        =  3.38458e+00


Total analysis time (seconds) = 0.648921

Total elapsed time (seconds) = 0.897 

Total DRAM available = 16384.000 MB.
DRAM currently available =  148.531 MB.
Maximum ngspice program size =   25.703 MB.
Current ngspice program size =   25.703 MB.

