
Note: Compatibility modes selected: hs a


Circuit: SKY130 library cell inv_4 A_to_Y

option SCALE: Scale is set to 1e-06 for instance and model parameters
Doing analysis at TEMP = 105.664140 and TNOM = 27.000000

Using KLU as Direct Linear Solver
 Reference value :  0.00000e+00
 Reference value :  4.54610e-08
 Reference value :  9.22260e-08
 Reference value :  1.37870e-07
 Reference value :  1.84333e-07
 Reference value :  2.31201e-07
 Reference value :  2.77665e-07
 Reference value :  3.24175e-07
No. of Data Rows : 68034

  Measurements for Transient Analysis

tphl                =  5.27294e-10 targ=  2.55891e-08 trig=  2.50618e-08
tplh                =  7.95575e-10 targ=  9.79809e-08 trig=  9.71853e-08
i_vdd_avg           =  -1.35499e-06 from=  1.00000e-08 to=  3.30005e-07
power_avg_uw        =  2.46622e+00


Total analysis time (seconds) = 1.88762

Total elapsed time (seconds) = 2.153 

Total DRAM available = 16384.000 MB.
DRAM currently available =  140.031 MB.
Maximum ngspice program size =   27.562 MB.
Current ngspice program size =   27.562 MB.

