
Note: Compatibility modes selected: hs a


Circuit: SKY130 library cell oai21_1 A1_to_Y__A2=0,B1=1

option SCALE: Scale is set to 1e-06 for instance and model parameters
Doing analysis at TEMP = 104.091490 and TNOM = 27.000000

Using KLU as Direct Linear Solver
 Reference value :  0.00000e+00
 Reference value :  5.70748e-08
 Reference value :  1.14757e-07
 Reference value :  1.71342e-07
 Reference value :  2.28700e-07
 Reference value :  2.85557e-07
No. of Data Rows : 68030

  Measurements for Transient Analysis

tphl                =  9.79212e-10 targ=  2.55879e-08 trig=  2.46087e-08
tplh                =  1.90254e-09 targ=  9.77285e-08 trig=  9.58260e-08
i_vdd_avg           =  -7.88082e-07 from=  1.00000e-08 to=  3.30002e-07
power_avg_uw        =  1.31726e+00


Total analysis time (seconds) = 1.53391

Total elapsed time (seconds) = 1.785 

Total DRAM available = 16384.000 MB.
DRAM currently available =  225.672 MB.
Maximum ngspice program size =   26.578 MB.
Current ngspice program size =   26.578 MB.

