
Note: Compatibility modes selected: hs a


Circuit: SKY130 library cell xor2_1 A_to_X__B=0

option SCALE: Scale is set to 1e-06 for instance and model parameters
Doing analysis at TEMP = -13.907404 and TNOM = 27.000000

Using KLU as Direct Linear Solver
 Reference value :  0.00000e+00
 Reference value :  3.59335e-08
 Reference value :  7.25085e-08
 Reference value :  1.09113e-07
 Reference value :  1.45514e-07
 Reference value :  1.82544e-07
 Reference value :  2.18483e-07
 Reference value :  2.54373e-07
 Reference value :  2.90964e-07
 Reference value :  3.28349e-07
No. of Data Rows : 68032

  Measurements for Transient Analysis

tplh                =  4.42117e-09 targ=  3.27192e-08 trig=  2.82980e-08
tphl                =  2.20991e-09 targ=  1.09104e-07 trig=  1.06894e-07
i_vdd_avg           =  -2.40549e-06 from=  1.00000e-08 to=  3.30004e-07
power_avg_uw        =  4.43522e+00


Total analysis time (seconds) = 2.41719

Total elapsed time (seconds) = 2.692 

Total DRAM available = 16384.000 MB.
DRAM currently available =  157.141 MB.
Maximum ngspice program size =   25.812 MB.
Current ngspice program size =   25.812 MB.

