
Note: Compatibility modes selected: hs a


Circuit: SKY130 library cell nor2_4 A_to_Y__B=0

option SCALE: Scale is set to 1e-06 for instance and model parameters
Doing analysis at TEMP = -21.097265 and TNOM = 27.000000

Using KLU as Direct Linear Solver
 Reference value :  0.00000e+00
 Reference value :  2.43775e-08
 Reference value :  4.86401e-08
 Reference value :  7.27001e-08
 Reference value :  9.71951e-08
 Reference value :  1.21973e-07
 Reference value :  1.46133e-07
 Reference value :  1.70668e-07
 Reference value :  1.94860e-07
 Reference value :  2.19200e-07
 Reference value :  2.43735e-07
 Reference value :  2.68013e-07
 Reference value :  2.92053e-07
 Reference value :  3.16973e-07
No. of Data Rows : 68034

  Measurements for Transient Analysis

tphl                =  8.42378e-10 targ=  2.64462e-08 trig=  2.56038e-08
tplh                =  2.00754e-09 targ=  1.00819e-07 trig=  9.88113e-08
i_vdd_avg           =  -2.33572e-06 from=  1.00000e-08 to=  3.30003e-07
power_avg_uw        =  4.23841e+00


Total analysis time (seconds) = 3.61025

Total elapsed time (seconds) = 3.878 

Total DRAM available = 16384.000 MB.
DRAM currently available =  190.578 MB.
Maximum ngspice program size =   27.750 MB.
Current ngspice program size =   27.750 MB.

