
Note: Compatibility modes selected: hs a


Circuit: SKY130 library cell mux2_4 A0_to_X__A1=0,S=0

option SCALE: Scale is set to 1e-06 for instance and model parameters
Doing analysis at TEMP = 21.825490 and TNOM = 27.000000

Using KLU as Direct Linear Solver
 Reference value :  0.00000e+00
 Reference value :  2.14814e-08
 Reference value :  4.27716e-08
 Reference value :  6.43116e-08
 Reference value :  8.58416e-08
 Reference value :  1.07351e-07
 Reference value :  1.28681e-07
 Reference value :  1.49901e-07
 Reference value :  1.70841e-07
 Reference value :  1.92147e-07
 Reference value :  2.13407e-07
 Reference value :  2.34537e-07
 Reference value :  2.55487e-07
 Reference value :  2.76656e-07
 Reference value :  2.98196e-07
 Reference value :  3.19266e-07
No. of Data Rows : 68032

  Measurements for Transient Analysis

tplh                =  9.64816e-10 targ=  2.72969e-08 trig=  2.63320e-08
tphl                =  1.45052e-09 targ=  1.02447e-07 trig=  1.00996e-07
i_vdd_avg           =  -2.46256e-06 from=  1.00000e-08 to=  3.30001e-07
power_avg_uw        =  4.72218e+00


Total analysis time (seconds) = 4.1066

Total elapsed time (seconds) = 4.381 

Total DRAM available = 16384.000 MB.
DRAM currently available =  150.781 MB.
Maximum ngspice program size =   26.672 MB.
Current ngspice program size =   26.672 MB.

