
Note: Compatibility modes selected: hs a


Circuit: SKY130 library cell aoi21_1 A1_to_Y__A2=1,B1=0

option SCALE: Scale is set to 1e-06 for instance and model parameters
Doing analysis at TEMP = 106.368630 and TNOM = 27.000000

Using KLU as Direct Linear Solver
 Reference value :  5.93140e-09
 Reference value :  6.89791e-08
 Reference value :  1.25851e-07
 Reference value :  1.80736e-07
 Reference value :  2.35849e-07
 Reference value :  2.93671e-07
No. of Data Rows : 68030

  Measurements for Transient Analysis

tphl                =  2.99290e-09 targ=  3.00612e-08 trig=  2.70683e-08
tplh                =  4.71215e-09 targ=  1.07917e-07 trig=  1.03205e-07
i_vdd_avg           =  -2.43158e-06 from=  1.00000e-08 to=  3.30001e-07
power_avg_uw        =  4.53144e+00


Total analysis time (seconds) = 1.5423

Total elapsed time (seconds) = 1.764 

Total DRAM available = 16384.000 MB.
DRAM currently available =  227.828 MB.
Maximum ngspice program size =   26.719 MB.
Current ngspice program size =   26.719 MB.

