
Note: Compatibility modes selected: hs a


Circuit: SKY130 library cell mux2_1 A0_to_X__A1=0,S=0

option SCALE: Scale is set to 1e-06 for instance and model parameters
Doing analysis at TEMP = 26.979778 and TNOM = 27.000000

Using KLU as Direct Linear Solver
 Reference value :  0.00000e+00
 Reference value :  3.03621e-08
 Reference value :  6.10671e-08
 Reference value :  9.21121e-08
 Reference value :  1.22537e-07
 Reference value :  1.53772e-07
 Reference value :  1.84727e-07
 Reference value :  2.15227e-07
 Reference value :  2.46852e-07
 Reference value :  2.77512e-07
 Reference value :  3.08457e-07
 Reference value :  3.39532e-07
No. of Data Rows : 68032

  Measurements for Transient Analysis

tplh                =  1.43911e-09 targ=  2.55864e-08 trig=  2.41473e-08
tphl                =  9.42156e-10 targ=  9.53841e-08 trig=  9.44419e-08
i_vdd_avg           =  -1.14123e-06 from=  1.00000e-08 to=  3.30002e-07
power_avg_uw        =  1.88556e+00


Total analysis time (seconds) = 2.83546

Total elapsed time (seconds) = 3.096 

Total DRAM available = 16384.000 MB.
DRAM currently available =  150.203 MB.
Maximum ngspice program size =   24.375 MB.
Current ngspice program size =   24.375 MB.

