
Note: Compatibility modes selected: hs a


Circuit: SKY130 library cell oai21_1 A1_to_Y__A2=0,B1=1

option SCALE: Scale is set to 1e-06 for instance and model parameters
Doing analysis at TEMP = 46.789727 and TNOM = 27.000000

Using KLU as Direct Linear Solver
 Reference value :  0.00000e+00
 Reference value :  5.72486e-08
 Reference value :  1.14985e-07
 Reference value :  1.72975e-07
 Reference value :  2.30244e-07
 Reference value :  2.88095e-07
No. of Data Rows : 68032

  Measurements for Transient Analysis

tphl                =  2.54697e-09 targ=  2.96275e-08 trig=  2.70806e-08
tplh                =  4.94293e-09 targ=  1.08185e-07 trig=  1.03242e-07
i_vdd_avg           =  -1.53418e-06 from=  1.00000e-08 to=  3.30005e-07
power_avg_uw        =  2.60142e+00


Total analysis time (seconds) = 1.51152

Total elapsed time (seconds) = 1.770 

Total DRAM available = 16384.000 MB.
DRAM currently available =  123.125 MB.
Maximum ngspice program size =   26.922 MB.
Current ngspice program size =   26.922 MB.

