
Note: Compatibility modes selected: hs a


Circuit: SKY130 library cell aoi21_4 A1_to_Y__A2=1,B1=0

option SCALE: Scale is set to 1e-06 for instance and model parameters
Doing analysis at TEMP = 68.244864 and TNOM = 27.000000

Using KLU as Direct Linear Solver
 Reference value :  0.00000e+00
 Reference value :  1.62264e-08
 Reference value :  3.26771e-08
 Reference value :  4.90621e-08
 Reference value :  6.53271e-08
 Reference value :  8.18621e-08
 Reference value :  9.84371e-08
 Reference value :  1.14782e-07
 Reference value :  1.31092e-07
 Reference value :  1.47507e-07
 Reference value :  1.64022e-07
 Reference value :  1.80527e-07
 Reference value :  1.96947e-07
 Reference value :  2.13207e-07
 Reference value :  2.29717e-07
 Reference value :  2.46102e-07
 Reference value :  2.62537e-07
 Reference value :  2.79132e-07
 Reference value :  2.95822e-07
 Reference value :  3.12692e-07
 Reference value :  3.28987e-07
No. of Data Rows : 68032

  Measurements for Transient Analysis

tphl                =  6.18792e-10 targ=  2.59711e-08 trig=  2.53523e-08
tplh                =  9.88595e-10 targ=  9.90455e-08 trig=  9.80569e-08
i_vdd_avg           =  -9.55780e-07 from=  1.00000e-08 to=  3.30002e-07
power_avg_uw        =  1.73128e+00


Total analysis time (seconds) = 5.30848

Total elapsed time (seconds) = 5.591 

Total DRAM available = 16384.000 MB.
DRAM currently available =  125.469 MB.
Maximum ngspice program size =   27.359 MB.
Current ngspice program size =   27.359 MB.

