
Note: Compatibility modes selected: hs a


Circuit: SKY130 library cell mux2_4 A0_to_X__A1=0,S=0

option SCALE: Scale is set to 1e-06 for instance and model parameters
Doing analysis at TEMP = 12.639108 and TNOM = 27.000000

Using KLU as Direct Linear Solver
 Reference value :  0.00000e+00
 Reference value :  2.11914e-08
 Reference value :  4.27704e-08
 Reference value :  6.41754e-08
 Reference value :  8.53754e-08
 Reference value :  1.06815e-07
 Reference value :  1.27628e-07
 Reference value :  1.48973e-07
 Reference value :  1.70228e-07
 Reference value :  1.90833e-07
 Reference value :  2.11950e-07
 Reference value :  2.33290e-07
 Reference value :  2.54835e-07
 Reference value :  2.76063e-07
 Reference value :  2.97423e-07
 Reference value :  3.18463e-07
 Reference value :  3.39568e-07
No. of Data Rows : 68034

  Measurements for Transient Analysis

tplh                =  1.66162e-09 targ=  2.94806e-08 trig=  2.78189e-08
tphl                =  2.57374e-09 targ=  1.08031e-07 trig=  1.05457e-07
i_vdd_avg           =  -1.66803e-06 from=  1.00000e-08 to=  3.30003e-07
power_avg_uw        =  2.76047e+00


Total analysis time (seconds) = 4.1091

Total elapsed time (seconds) = 4.375 

Total DRAM available = 16384.000 MB.
DRAM currently available =  216.172 MB.
Maximum ngspice program size =   27.609 MB.
Current ngspice program size =   27.609 MB.

