
Note: Compatibility modes selected: hs a


Circuit: SKY130 library cell aoi21_1 A1_to_Y__A2=1,B1=0

option SCALE: Scale is set to 1e-06 for instance and model parameters
Doing analysis at TEMP = 29.703535 and TNOM = 27.000000

Using KLU as Direct Linear Solver
 Reference value :  0.00000e+00
 Reference value :  5.70337e-08
 Reference value :  1.14955e-07
 Reference value :  1.72180e-07
 Reference value :  2.30089e-07
 Reference value :  2.88485e-07
No. of Data Rows : 68032

  Measurements for Transient Analysis

tphl                =  3.30392e-09 targ=  3.23820e-08 trig=  2.90781e-08
tplh                =  5.78799e-09 targ=  1.15022e-07 trig=  1.09234e-07
i_vdd_avg           =  -1.73355e-06 from=  1.00000e-08 to=  3.30005e-07
power_avg_uw        =  3.09625e+00


Total analysis time (seconds) = 1.51371

Total elapsed time (seconds) = 1.770 

Total DRAM available = 16384.000 MB.
DRAM currently available =  153.156 MB.
Maximum ngspice program size =   26.594 MB.
Current ngspice program size =   26.594 MB.

