
Note: Compatibility modes selected: hs a


Circuit: SKY130 library cell oai21_1 A1_to_Y__A2=0,B1=1

option SCALE: Scale is set to 1e-06 for instance and model parameters
Doing analysis at TEMP = -29.810538 and TNOM = 27.000000

Using KLU as Direct Linear Solver
 Reference value :  0.00000e+00
 Reference value :  5.84028e-08
 Reference value :  1.15163e-07
 Reference value :  1.72358e-07
 Reference value :  2.30793e-07
 Reference value :  2.89028e-07
No. of Data Rows : 68032

  Measurements for Transient Analysis

tphl                =  2.69518e-09 targ=  3.18203e-08 trig=  2.91251e-08
tplh                =  5.80405e-09 targ=  1.15179e-07 trig=  1.09375e-07
i_vdd_avg           =  -1.48787e-06 from=  1.00000e-08 to=  3.30003e-07
power_avg_uw        =  2.69661e+00


Total analysis time (seconds) = 1.50867

Total elapsed time (seconds) = 1.764 

Total DRAM available = 16384.000 MB.
DRAM currently available =  175.594 MB.
Maximum ngspice program size =   26.609 MB.
Current ngspice program size =   26.609 MB.

