
Note: Compatibility modes selected: hs a


Circuit: SKY130 library cell xor2_4 A_to_X__B=0

option SCALE: Scale is set to 1e-06 for instance and model parameters
Doing analysis at TEMP = -25.280878 and TNOM = 27.000000

Using KLU as Direct Linear Solver
 Reference value :  0.00000e+00
 Reference value :  9.90140e-09
 Reference value :  1.98364e-08
 Reference value :  2.98254e-08
 Reference value :  3.98354e-08
 Reference value :  4.99254e-08
 Reference value :  6.01304e-08
 Reference value :  7.00754e-08
 Reference value :  8.00754e-08
 Reference value :  9.00604e-08
 Reference value :  9.99684e-08
 Reference value :  1.10013e-07
 Reference value :  1.20143e-07
 Reference value :  1.30243e-07
 Reference value :  1.40318e-07
 Reference value :  1.50338e-07
 Reference value :  1.60423e-07
 Reference value :  1.70383e-07
 Reference value :  1.80248e-07
 Reference value :  1.90245e-07
 Reference value :  2.00210e-07
 Reference value :  2.10025e-07
 Reference value :  2.20015e-07
 Reference value :  2.30015e-07
 Reference value :  2.40120e-07
 Reference value :  2.50190e-07
 Reference value :  2.60098e-07
 Reference value :  2.70083e-07
 Reference value :  2.79953e-07
 Reference value :  2.89958e-07
 Reference value :  2.99973e-07
 Reference value :  3.09958e-07
 Reference value :  3.20008e-07
 Reference value :  3.30078e-07
No. of Data Rows : 68034

  Measurements for Transient Analysis

tplh                =  1.39515e-09 targ=  2.68641e-08 trig=  2.54690e-08
tphl                =  9.91692e-10 targ=  9.93986e-08 trig=  9.84069e-08
i_vdd_avg           =  -2.55636e-06 from=  1.00000e-08 to=  3.30003e-07
power_avg_uw        =  4.65176e+00


Total analysis time (seconds) = 8.73639

Total elapsed time (seconds) = 9.046 

Total DRAM available = 16384.000 MB.
DRAM currently available =  190.578 MB.
Maximum ngspice program size =   27.625 MB.
Current ngspice program size =   27.625 MB.

