
Note: Compatibility modes selected: hs a


Circuit: SKY130 library cell nor2_4 A_to_Y__B=0

option SCALE: Scale is set to 1e-06 for instance and model parameters
Doing analysis at TEMP = -11.134790 and TNOM = 27.000000

Using KLU as Direct Linear Solver
 Reference value :  0.00000e+00
 Reference value :  2.40225e-08
 Reference value :  4.82010e-08
 Reference value :  7.27460e-08
 Reference value :  9.66960e-08
 Reference value :  1.20899e-07
 Reference value :  1.45329e-07
 Reference value :  1.69799e-07
 Reference value :  1.93791e-07
 Reference value :  2.17961e-07
 Reference value :  2.42571e-07
 Reference value :  2.66286e-07
 Reference value :  2.90544e-07
 Reference value :  3.14954e-07
 Reference value :  3.38934e-07
No. of Data Rows : 68034

  Measurements for Transient Analysis

tphl                =  6.28655e-10 targ=  2.79604e-08 trig=  2.73317e-08
tplh                =  1.85662e-09 targ=  1.05852e-07 trig=  1.03995e-07
i_vdd_avg           =  -1.16039e-06 from=  1.00000e-08 to=  3.30004e-07
power_avg_uw        =  2.24288e+00


Total analysis time (seconds) = 3.63783

Total elapsed time (seconds) = 3.916 

Total DRAM available = 16384.000 MB.
DRAM currently available =  148.531 MB.
Maximum ngspice program size =   27.516 MB.
Current ngspice program size =   27.516 MB.

