
Note: Compatibility modes selected: hs a


Circuit: SKY130 library cell aoi21_1 A1_to_Y__A2=1,B1=0

option SCALE: Scale is set to 1e-06 for instance and model parameters
Doing analysis at TEMP = -19.163581 and TNOM = 27.000000

Using KLU as Direct Linear Solver
 Reference value :  0.00000e+00
 Reference value :  5.71480e-08
 Reference value :  1.14923e-07
 Reference value :  1.72853e-07
 Reference value :  2.30388e-07
 Reference value :  2.88218e-07
No. of Data Rows : 68032

  Measurements for Transient Analysis

tphl                =  1.10496e-09 targ=  2.77002e-08 trig=  2.65952e-08
tplh                =  2.23621e-09 targ=  1.04022e-07 trig=  1.01786e-07
i_vdd_avg           =  -4.31485e-07 from=  1.00000e-08 to=  3.30003e-07
power_avg_uw        =  7.83661e-01


Total analysis time (seconds) = 1.5136

Total elapsed time (seconds) = 1.784 

Total DRAM available = 16384.000 MB.
DRAM currently available =  204.312 MB.
Maximum ngspice program size =   26.594 MB.
Current ngspice program size =   26.594 MB.

