
Note: Compatibility modes selected: hs a


Circuit: SKY130 library cell nand2_4 A_to_Y__B=1

option SCALE: Scale is set to 1e-06 for instance and model parameters
Doing analysis at TEMP = -12.393651 and TNOM = 27.000000

Using KLU as Direct Linear Solver
 Reference value :  0.00000e+00
 Reference value :  2.43175e-08
 Reference value :  4.85024e-08
 Reference value :  7.32024e-08
 Reference value :  9.78124e-08
 Reference value :  1.21762e-07
 Reference value :  1.45912e-07
 Reference value :  1.70447e-07
 Reference value :  1.95022e-07
 Reference value :  2.19862e-07
 Reference value :  2.44252e-07
 Reference value :  2.69072e-07
 Reference value :  2.93667e-07
 Reference value :  3.18112e-07
No. of Data Rows : 68032

  Measurements for Transient Analysis

tphl                =  -5.97061e-11 targ=  2.75603e-08 trig=  2.76200e-08
tplh                =  7.74328e-10 targ=  1.05634e-07 trig=  1.04860e-07
i_vdd_avg           =  -8.78419e-08 from=  1.00000e-08 to=  3.30002e-07
power_avg_uw        =  1.61680e-01


Total analysis time (seconds) = 3.5916

Total elapsed time (seconds) = 3.863 

Total DRAM available = 16384.000 MB.
DRAM currently available =  139.656 MB.
Maximum ngspice program size =   27.297 MB.
Current ngspice program size =   27.297 MB.

