
Note: Compatibility modes selected: hs a


Circuit: SKY130 library cell mux2_4 A0_to_X__A1=0,S=0

option SCALE: Scale is set to 1e-06 for instance and model parameters
Doing analysis at TEMP = 101.509770 and TNOM = 27.000000

Using KLU as Direct Linear Solver
 Reference value :  0.00000e+00
 Reference value :  2.31364e-08
 Reference value :  4.46397e-08
 Reference value :  6.52447e-08
 Reference value :  8.66147e-08
 Reference value :  1.07727e-07
 Reference value :  1.28857e-07
 Reference value :  1.49752e-07
 Reference value :  1.70697e-07
 Reference value :  1.92090e-07
 Reference value :  2.13455e-07
 Reference value :  2.35160e-07
 Reference value :  2.56610e-07
 Reference value :  2.77772e-07
 Reference value :  2.99482e-07
 Reference value :  3.20832e-07
No. of Data Rows : 68030

  Measurements for Transient Analysis

tplh                =  5.16257e-10 targ=  2.56449e-08 trig=  2.51286e-08
tphl                =  7.38510e-10 targ=  9.81243e-08 trig=  9.73858e-08
i_vdd_avg           =  -6.63021e-07 from=  1.00000e-08 to=  3.30002e-07
power_avg_uw        =  1.28927e+00


Total analysis time (seconds) = 4.11413

Total elapsed time (seconds) = 4.356 

Total DRAM available = 16384.000 MB.
DRAM currently available =  225.672 MB.
Maximum ngspice program size =   26.906 MB.
Current ngspice program size =   26.906 MB.

