
Note: Compatibility modes selected: hs a


Circuit: SKY130 library cell xor2_1 A_to_X__B=0

option SCALE: Scale is set to 1e-06 for instance and model parameters
Doing analysis at TEMP = 35.158675 and TNOM = 27.000000

Using KLU as Direct Linear Solver
 Reference value :  0.00000e+00
 Reference value :  3.53636e-08
 Reference value :  7.22686e-08
 Reference value :  1.09800e-07
 Reference value :  1.46860e-07
 Reference value :  1.84098e-07
 Reference value :  2.21329e-07
 Reference value :  2.57799e-07
 Reference value :  2.94640e-07
 Reference value :  3.31355e-07
No. of Data Rows : 68032

  Measurements for Transient Analysis

tplh                =  2.94577e-10 targ=  2.53901e-08 trig=  2.50955e-08
tphl                =  4.72237e-10 targ=  9.77589e-08 trig=  9.72866e-08
i_vdd_avg           =  -1.64616e-07 from=  1.00000e-08 to=  3.30005e-07
power_avg_uw        =  3.24132e-01


Total analysis time (seconds) = 2.35819

Total elapsed time (seconds) = 2.623 

Total DRAM available = 16384.000 MB.
DRAM currently available =  204.312 MB.
Maximum ngspice program size =   27.203 MB.
Current ngspice program size =   27.203 MB.

