
Note: Compatibility modes selected: hs a


Circuit: SKY130 library cell nand3_4 A_to_Y__B=1,C=1

option SCALE: Scale is set to 1e-06 for instance and model parameters
Doing analysis at TEMP = 61.741537 and TNOM = 27.000000

Using KLU as Direct Linear Solver
 Reference value :  0.00000e+00
 Reference value :  1.68614e-08
 Reference value :  3.35762e-08
 Reference value :  4.99812e-08
 Reference value :  6.64462e-08
 Reference value :  8.26462e-08
 Reference value :  9.94062e-08
 Reference value :  1.15765e-07
 Reference value :  1.32415e-07
 Reference value :  1.48985e-07
 Reference value :  1.65525e-07
 Reference value :  1.81945e-07
 Reference value :  1.98371e-07
 Reference value :  2.14951e-07
 Reference value :  2.31721e-07
 Reference value :  2.48406e-07
 Reference value :  2.64736e-07
 Reference value :  2.81175e-07
 Reference value :  2.97985e-07
 Reference value :  3.14440e-07
 Reference value :  3.30960e-07
No. of Data Rows : 68034

  Measurements for Transient Analysis

tphl                =  1.09667e-09 targ=  2.79310e-08 trig=  2.68344e-08
tplh                =  1.46522e-09 targ=  1.03968e-07 trig=  1.02503e-07
i_vdd_avg           =  -1.56017e-06 from=  1.00000e-08 to=  3.30005e-07
power_avg_uw        =  2.94565e+00


Total analysis time (seconds) = 5.29452

Total elapsed time (seconds) = 5.565 

Total DRAM available = 16384.000 MB.
DRAM currently available =  137.062 MB.
Maximum ngspice program size =   26.406 MB.
Current ngspice program size =   26.406 MB.

