
Note: Compatibility modes selected: hs a


Circuit: SKY130 library cell nand2_1 A_to_Y__B=1

option SCALE: Scale is set to 1e-06 for instance and model parameters
Doing analysis at TEMP = -23.213778 and TNOM = 27.000000

Using KLU as Direct Linear Solver
 Reference value :  0.00000e+00
 Reference value :  8.10472e-08
 Reference value :  1.61777e-07
 Reference value :  2.43717e-07
 Reference value :  3.25122e-07
No. of Data Rows : 68032

  Measurements for Transient Analysis

tphl                =  3.81396e-09 targ=  3.35813e-08 trig=  2.97674e-08
tplh                =  5.88110e-09 targ=  1.17183e-07 trig=  1.11302e-07
i_vdd_avg           =  -2.26266e-06 from=  1.00000e-08 to=  3.30002e-07
power_avg_uw        =  4.06360e+00


Total analysis time (seconds) = 1.06968

Total elapsed time (seconds) = 1.329 

Total DRAM available = 16384.000 MB.
DRAM currently available =  174.328 MB.
Maximum ngspice program size =   25.156 MB.
Current ngspice program size =   25.156 MB.

