
Note: Compatibility modes selected: hs a


Circuit: SKY130 library cell inv_1 A_to_Y

option SCALE: Scale is set to 1e-06 for instance and model parameters
Doing analysis at TEMP = 17.628415 and TNOM = 27.000000

Using KLU as Direct Linear Solver
 Reference value :  2.54575e-08
 Reference value :  1.74852e-07
 Reference value :  3.08252e-07
No. of Data Rows : 68032

  Measurements for Transient Analysis

tphl                =  2.71795e-09 targ=  3.24979e-08 trig=  2.97799e-08
tplh                =  4.93052e-09 targ=  1.16270e-07 trig=  1.11340e-07
i_vdd_avg           =  -2.33225e-06 from=  1.00000e-08 to=  3.30002e-07
power_avg_uw        =  4.50437e+00


Total analysis time (seconds) = 0.614901

Total elapsed time (seconds) = 0.818 

Total DRAM available = 16384.000 MB.
DRAM currently available =  359.625 MB.
Maximum ngspice program size =   24.453 MB.
Current ngspice program size =   24.453 MB.

