
Note: Compatibility modes selected: hs a


Circuit: SKY130 library cell inv_1 A_to_Y

option SCALE: Scale is set to 1e-06 for instance and model parameters
Doing analysis at TEMP = -8.956332 and TNOM = 27.000000

Using KLU as Direct Linear Solver
 Reference value :  0.00000e+00
 Reference value :  1.32446e-07
 Reference value :  2.64936e-07
No. of Data Rows : 68032

  Measurements for Transient Analysis

tphl                =  1.30576e-09 targ=  2.67929e-08 trig=  2.54872e-08
tplh                =  2.42656e-09 targ=  1.00888e-07 trig=  9.84615e-08
i_vdd_avg           =  -1.16849e-06 from=  1.00000e-08 to=  3.30001e-07
power_avg_uw        =  1.94596e+00


Total analysis time (seconds) = 0.662496

Total elapsed time (seconds) = 0.911 

Total DRAM available = 16384.000 MB.
DRAM currently available =  138.938 MB.
Maximum ngspice program size =   26.250 MB.
Current ngspice program size =   26.250 MB.

