
Note: Compatibility modes selected: hs a


Circuit: SKY130 library cell nor2_1 A_to_Y__B=0

option SCALE: Scale is set to 1e-06 for instance and model parameters
Doing analysis at TEMP = 14.011986 and TNOM = 27.000000

Using KLU as Direct Linear Solver
 Reference value :  0.00000e+00
 Reference value :  8.02933e-08
 Reference value :  1.60969e-07
 Reference value :  2.40813e-07
 Reference value :  3.21904e-07
No. of Data Rows : 68032

  Measurements for Transient Analysis

tphl                =  2.35612e-09 targ=  3.13790e-08 trig=  2.90229e-08
tplh                =  5.23801e-09 targ=  1.14307e-07 trig=  1.09069e-07
i_vdd_avg           =  -1.74890e-06 from=  1.00000e-08 to=  3.30004e-07
power_avg_uw        =  3.28952e+00


Total analysis time (seconds) = 1.08293

Total elapsed time (seconds) = 1.332 

Total DRAM available = 16384.000 MB.
DRAM currently available =  150.781 MB.
Maximum ngspice program size =   25.438 MB.
Current ngspice program size =   25.438 MB.

