
Note: Compatibility modes selected: hs a


Circuit: SKY130 library cell xor2_4 A_to_X__B=0

option SCALE: Scale is set to 1e-06 for instance and model parameters
Doing analysis at TEMP = 118.850550 and TNOM = 27.000000

Using KLU as Direct Linear Solver
 Reference value :  0.00000e+00
 Reference value :  9.94140e-09
 Reference value :  2.00014e-08
 Reference value :  2.98075e-08
 Reference value :  3.96610e-08
 Reference value :  4.95860e-08
 Reference value :  5.94110e-08
 Reference value :  6.94060e-08
 Reference value :  7.93510e-08
 Reference value :  8.94310e-08
 Reference value :  9.91610e-08
 Reference value :  1.08921e-07
 Reference value :  1.18925e-07
 Reference value :  1.28775e-07
 Reference value :  1.39000e-07
 Reference value :  1.49060e-07
 Reference value :  1.58970e-07
 Reference value :  1.69005e-07
 Reference value :  1.79050e-07
 Reference value :  1.89078e-07
 Reference value :  1.98926e-07
 Reference value :  2.08791e-07
 Reference value :  2.18726e-07
 Reference value :  2.28601e-07
 Reference value :  2.38591e-07
 Reference value :  2.48451e-07
 Reference value :  2.58321e-07
 Reference value :  2.68211e-07
 Reference value :  2.78050e-07
 Reference value :  2.88025e-07
 Reference value :  2.98050e-07
 Reference value :  3.07930e-07
 Reference value :  3.18040e-07
 Reference value :  3.28065e-07
 Reference value :  3.38200e-07
No. of Data Rows : 68034

  Measurements for Transient Analysis

tplh                =  9.45439e-10 targ=  2.96147e-08 trig=  2.86693e-08
tphl                =  1.14933e-09 targ=  1.09157e-07 trig=  1.08008e-07
i_vdd_avg           =  -1.34300e-06 from=  1.00000e-08 to=  3.30005e-07
power_avg_uw        =  2.27516e+00


Total analysis time (seconds) = 8.8199

Total elapsed time (seconds) = 9.123 

Total DRAM available = 16384.000 MB.
DRAM currently available =  144.875 MB.
Maximum ngspice program size =   26.625 MB.
Current ngspice program size =   26.625 MB.

