
Note: Compatibility modes selected: hs a


Circuit: SKY130 library cell nand2_4 A_to_Y__B=1

option SCALE: Scale is set to 1e-06 for instance and model parameters
Doing analysis at TEMP = 22.944861 and TNOM = 27.000000

Using KLU as Direct Linear Solver
 Reference value :  1.14000e-11
 Reference value :  2.64680e-08
 Reference value :  5.11780e-08
 Reference value :  7.47380e-08
 Reference value :  9.91734e-08
 Reference value :  1.23173e-07
 Reference value :  1.47553e-07
 Reference value :  1.72303e-07
 Reference value :  1.95908e-07
 Reference value :  2.19943e-07
 Reference value :  2.44808e-07
 Reference value :  2.69253e-07
 Reference value :  2.93593e-07
 Reference value :  3.18063e-07
No. of Data Rows : 68032

  Measurements for Transient Analysis

tphl                =  6.14774e-10 targ=  2.49975e-08 trig=  2.43827e-08
tplh                =  8.65560e-10 targ=  9.60137e-08 trig=  9.51482e-08
i_vdd_avg           =  -2.13175e-06 from=  1.00000e-08 to=  3.30003e-07
power_avg_uw        =  3.53184e+00


Total analysis time (seconds) = 3.62965

Total elapsed time (seconds) = 3.871 

Total DRAM available = 16384.000 MB.
DRAM currently available =  197.828 MB.
Maximum ngspice program size =   26.516 MB.
Current ngspice program size =   26.516 MB.

