
Note: Compatibility modes selected: hs a


Circuit: SKY130 library cell mux2_1 A0_to_X__A1=0,S=0

option SCALE: Scale is set to 1e-06 for instance and model parameters
Doing analysis at TEMP = 43.380973 and TNOM = 27.000000

Using KLU as Direct Linear Solver
 Reference value :  0.00000e+00
 Reference value :  3.15232e-08
 Reference value :  6.25882e-08
 Reference value :  9.38082e-08
 Reference value :  1.24349e-07
 Reference value :  1.55484e-07
 Reference value :  1.85858e-07
 Reference value :  2.16983e-07
 Reference value :  2.47373e-07
 Reference value :  2.78019e-07
 Reference value :  3.07839e-07
 Reference value :  3.38489e-07
No. of Data Rows : 68032

  Measurements for Transient Analysis

tplh                =  2.19058e-09 targ=  2.84784e-08 trig=  2.62878e-08
tphl                =  2.00205e-09 targ=  1.02866e-07 trig=  1.00863e-07
i_vdd_avg           =  -2.38575e-06 from=  1.00000e-08 to=  3.30004e-07
power_avg_uw        =  4.39394e+00


Total analysis time (seconds) = 2.84133

Total elapsed time (seconds) = 3.111 

Total DRAM available = 16384.000 MB.
DRAM currently available =  141.859 MB.
Maximum ngspice program size =   28.328 MB.
Current ngspice program size =   28.328 MB.

