
Note: Compatibility modes selected: hs a


Circuit: SKY130 library cell inv_1 A_to_Y

option SCALE: Scale is set to 1e-06 for instance and model parameters
Doing analysis at TEMP = 52.894798 and TNOM = 27.000000

Using KLU as Direct Linear Solver
 Reference value :  0.00000e+00
 Reference value :  1.36284e-07
 Reference value :  2.71279e-07
No. of Data Rows : 68032

  Measurements for Transient Analysis

tphl                =  5.85018e-10 targ=  2.50979e-08 trig=  2.45129e-08
tplh                =  1.03383e-09 targ=  9.65725e-08 trig=  9.55387e-08
i_vdd_avg           =  -7.53163e-07 from=  1.00000e-08 to=  3.30004e-07
power_avg_uw        =  1.29260e+00


Total analysis time (seconds) = 0.649276

Total elapsed time (seconds) = 0.894 

Total DRAM available = 16384.000 MB.
DRAM currently available =  173.766 MB.
Maximum ngspice program size =   25.250 MB.
Current ngspice program size =   25.250 MB.

