
Note: Compatibility modes selected: hs a


Circuit: SKY130 library cell oai21_4 A1_to_Y__A2=0,B1=1

option SCALE: Scale is set to 1e-06 for instance and model parameters
Doing analysis at TEMP = 90.139991 and TNOM = 27.000000

Using KLU as Direct Linear Solver
 Reference value :  0.00000e+00
 Reference value :  1.64814e-08
 Reference value :  3.31796e-08
 Reference value :  4.95846e-08
 Reference value :  6.60646e-08
 Reference value :  8.22746e-08
 Reference value :  9.84396e-08
 Reference value :  1.14397e-07
 Reference value :  1.30962e-07
 Reference value :  1.47217e-07
 Reference value :  1.63587e-07
 Reference value :  1.80077e-07
 Reference value :  1.96465e-07
 Reference value :  2.12400e-07
 Reference value :  2.29000e-07
 Reference value :  2.45425e-07
 Reference value :  2.61885e-07
 Reference value :  2.78452e-07
 Reference value :  2.94657e-07
 Reference value :  3.11052e-07
 Reference value :  3.27252e-07
No. of Data Rows : 68030

  Measurements for Transient Analysis

tphl                =  1.45720e-09 targ=  2.90082e-08 trig=  2.75510e-08
tplh                =  2.43057e-09 targ=  1.07084e-07 trig=  1.04653e-07
i_vdd_avg           =  -2.23709e-06 from=  1.00000e-08 to=  3.30002e-07
power_avg_uw        =  3.97749e+00


Total analysis time (seconds) = 5.38504

Total elapsed time (seconds) = 5.656 

Total DRAM available = 16384.000 MB.
DRAM currently available =   98.406 MB.
Maximum ngspice program size =   28.734 MB.
Current ngspice program size =   28.734 MB.

