
Note: Compatibility modes selected: hs a


Circuit: SKY130 library cell aoi21_4 A1_to_Y__A2=1,B1=0

option SCALE: Scale is set to 1e-06 for instance and model parameters
Doing analysis at TEMP = 113.590030 and TNOM = 27.000000

Using KLU as Direct Linear Solver
 Reference value :  0.00000e+00
 Reference value :  1.63664e-08
 Reference value :  3.28827e-08
 Reference value :  4.91327e-08
 Reference value :  6.56377e-08
 Reference value :  8.21827e-08
 Reference value :  9.84877e-08
 Reference value :  1.14888e-07
 Reference value :  1.31328e-07
 Reference value :  1.47813e-07
 Reference value :  1.64238e-07
 Reference value :  1.80863e-07
 Reference value :  1.97098e-07
 Reference value :  2.13708e-07
 Reference value :  2.30138e-07
 Reference value :  2.46448e-07
 Reference value :  2.62988e-07
 Reference value :  2.79228e-07
 Reference value :  2.95818e-07
 Reference value :  3.12293e-07
 Reference value :  3.29008e-07
No. of Data Rows : 68032

  Measurements for Transient Analysis

tphl                =  1.06768e-09 targ=  2.85603e-08 trig=  2.74926e-08
tplh                =  1.61219e-09 targ=  1.06090e-07 trig=  1.04478e-07
i_vdd_avg           =  -1.67458e-06 from=  1.00000e-08 to=  3.30003e-07
power_avg_uw        =  3.16003e+00


Total analysis time (seconds) = 5.34145

Total elapsed time (seconds) = 5.617 

Total DRAM available = 16384.000 MB.
DRAM currently available =  126.016 MB.
Maximum ngspice program size =   26.688 MB.
Current ngspice program size =   26.688 MB.

