
Note: Compatibility modes selected: hs a


Circuit: SKY130 library cell oai21_1 A1_to_Y__A2=0,B1=1

option SCALE: Scale is set to 1e-06 for instance and model parameters
Doing analysis at TEMP = 14.522931 and TNOM = 27.000000

Using KLU as Direct Linear Solver
 Reference value :  0.00000e+00
 Reference value :  5.67630e-08
 Reference value :  1.13974e-07
 Reference value :  1.71029e-07
 Reference value :  2.28178e-07
 Reference value :  2.84009e-07
No. of Data Rows : 68032

  Measurements for Transient Analysis

tphl                =  8.98519e-10 targ=  2.73313e-08 trig=  2.64328e-08
tplh                =  1.85681e-09 targ=  1.03155e-07 trig=  1.01298e-07
i_vdd_avg           =  -5.04541e-07 from=  1.00000e-08 to=  3.30004e-07
power_avg_uw        =  9.75064e-01


Total analysis time (seconds) = 1.52342

Total elapsed time (seconds) = 1.775 

Total DRAM available = 16384.000 MB.
DRAM currently available =  138.281 MB.
Maximum ngspice program size =   25.703 MB.
Current ngspice program size =   25.703 MB.

