
Note: Compatibility modes selected: hs a


Circuit: SKY130 library cell aoi21_1 A1_to_Y__A2=1,B1=0

option SCALE: Scale is set to 1e-06 for instance and model parameters
Doing analysis at TEMP = 96.071502 and TNOM = 27.000000

Using KLU as Direct Linear Solver
 Reference value :  0.00000e+00
 Reference value :  5.60944e-08
 Reference value :  1.13036e-07
 Reference value :  1.71346e-07
 Reference value :  2.27799e-07
 Reference value :  2.84716e-07
No. of Data Rows : 68030

  Measurements for Transient Analysis

tphl                =  1.86897e-09 targ=  3.02549e-08 trig=  2.83859e-08
tplh                =  2.85316e-09 targ=  1.10011e-07 trig=  1.07158e-07
i_vdd_avg           =  -9.51885e-07 from=  1.00000e-08 to=  3.30001e-07
power_avg_uw        =  1.83041e+00


Total analysis time (seconds) = 1.54828

Total elapsed time (seconds) = 1.798 

Total DRAM available = 16384.000 MB.
DRAM currently available =  172.312 MB.
Maximum ngspice program size =   25.375 MB.
Current ngspice program size =   25.375 MB.

