
Note: Compatibility modes selected: hs a


Circuit: SKY130 library cell oai21_4 A1_to_Y__A2=0,B1=1

option SCALE: Scale is set to 1e-06 for instance and model parameters
Doing analysis at TEMP = 16.434751 and TNOM = 27.000000

Using KLU as Direct Linear Solver
 Reference value :  0.00000e+00
 Reference value :  1.65664e-08
 Reference value :  3.33897e-08
 Reference value :  5.03147e-08
 Reference value :  6.71697e-08
 Reference value :  8.39047e-08
 Reference value :  1.00817e-07
 Reference value :  1.17912e-07
 Reference value :  1.35022e-07
 Reference value :  1.52392e-07
 Reference value :  1.70447e-07
 Reference value :  1.91505e-07
 Reference value :  2.13030e-07
 Reference value :  2.38385e-07
 Reference value :  2.66207e-07
 Reference value :  2.94142e-07
 Reference value :  3.22097e-07
No. of Data Rows : 68030

  Measurements for Transient Analysis

tphl                =  7.96775e-10 targ=  2.61004e-08 trig=  2.53036e-08
tplh                =  1.52200e-09 targ=  9.94329e-08 trig=  9.79109e-08
i_vdd_avg           =  -1.17575e-06 from=  1.00000e-08 to=  3.30002e-07
power_avg_uw        =  1.94405e+00


Total analysis time (seconds) = 4.16791

Total elapsed time (seconds) = 4.443 

Total DRAM available = 16384.000 MB.
DRAM currently available =  239.297 MB.
Maximum ngspice program size =   28.234 MB.
Current ngspice program size =   28.234 MB.

