
Note: Compatibility modes selected: hs a


Circuit: SKY130 library cell xor2_1 A_to_X__B=0

option SCALE: Scale is set to 1e-06 for instance and model parameters
Doing analysis at TEMP = 3.904904 and TNOM = 27.000000

Using KLU as Direct Linear Solver
 Reference value :  0.00000e+00
 Reference value :  3.67527e-08
 Reference value :  7.35727e-08
 Reference value :  1.10658e-07
 Reference value :  1.47453e-07
 Reference value :  1.84788e-07
 Reference value :  2.22363e-07
 Reference value :  2.58748e-07
 Reference value :  2.96043e-07
 Reference value :  3.32953e-07
No. of Data Rows : 68032

  Measurements for Transient Analysis

tplh                =  3.27539e-09 targ=  2.82780e-08 trig=  2.50026e-08
tphl                =  1.14043e-09 targ=  9.81482e-08 trig=  9.70078e-08
i_vdd_avg           =  -1.48793e-06 from=  1.00000e-08 to=  3.30003e-07
power_avg_uw        =  2.60324e+00


Total analysis time (seconds) = 2.3639

Total elapsed time (seconds) = 2.632 

Total DRAM available = 16384.000 MB.
DRAM currently available =  138.938 MB.
Maximum ngspice program size =   27.453 MB.
Current ngspice program size =   27.453 MB.

