
Note: Compatibility modes selected: hs a


Circuit: SKY130 library cell inv_4 A_to_Y

option SCALE: Scale is set to 1e-06 for instance and model parameters
Doing analysis at TEMP = 26.129277 and TNOM = 27.000000

Using KLU as Direct Linear Solver
 Reference value :  0.00000e+00
 Reference value :  4.69567e-08
 Reference value :  9.38117e-08
 Reference value :  1.40586e-07
 Reference value :  1.86833e-07
 Reference value :  2.33947e-07
 Reference value :  2.81286e-07
 Reference value :  3.26946e-07
No. of Data Rows : 68032

  Measurements for Transient Analysis

tphl                =  6.09515e-10 targ=  2.71866e-08 trig=  2.65771e-08
tplh                =  1.34431e-09 targ=  1.03076e-07 trig=  1.01731e-07
i_vdd_avg           =  -1.17489e-06 from=  1.00000e-08 to=  3.30001e-07
power_avg_uw        =  2.22901e+00


Total analysis time (seconds) = 1.87329

Total elapsed time (seconds) = 2.149 

Total DRAM available = 16384.000 MB.
DRAM currently available =  153.453 MB.
Maximum ngspice program size =   27.188 MB.
Current ngspice program size =   27.188 MB.

