
Note: Compatibility modes selected: hs a


Circuit: SKY130 library cell nand2_1 A_to_Y__B=1

option SCALE: Scale is set to 1e-06 for instance and model parameters
Doing analysis at TEMP = 1.475489 and TNOM = 27.000000

Using KLU as Direct Linear Solver
 Reference value :  0.00000e+00
 Reference value :  8.10900e-08
 Reference value :  1.62173e-07
 Reference value :  2.43890e-07
 Reference value :  3.23318e-07
No. of Data Rows : 68034

  Measurements for Transient Analysis

tphl                =  3.60826e-09 targ=  3.22970e-08 trig=  2.86888e-08
tplh                =  5.14220e-09 targ=  1.13208e-07 trig=  1.08066e-07
i_vdd_avg           =  -1.77680e-06 from=  1.00000e-08 to=  3.30003e-07
power_avg_uw        =  2.99056e+00


Total analysis time (seconds) = 1.08389

Total elapsed time (seconds) = 1.331 

Total DRAM available = 16384.000 MB.
DRAM currently available =  129.719 MB.
Maximum ngspice program size =   26.531 MB.
Current ngspice program size =   26.531 MB.

