
Note: Compatibility modes selected: hs a


Circuit: SKY130 library cell nand3_4 A_to_Y__B=1,C=1

option SCALE: Scale is set to 1e-06 for instance and model parameters
Doing analysis at TEMP = -22.299873 and TNOM = 27.000000

Using KLU as Direct Linear Solver
 Reference value :  0.00000e+00
 Reference value :  1.61014e-08
 Reference value :  3.25725e-08
 Reference value :  4.92643e-08
 Reference value :  6.59793e-08
 Reference value :  8.26843e-08
 Reference value :  9.92143e-08
 Reference value :  1.16341e-07
 Reference value :  1.33351e-07
 Reference value :  1.50241e-07
 Reference value :  1.66986e-07
 Reference value :  1.83786e-07
 Reference value :  2.00524e-07
 Reference value :  2.17139e-07
 Reference value :  2.33664e-07
 Reference value :  2.50409e-07
 Reference value :  2.66964e-07
 Reference value :  2.83561e-07
 Reference value :  3.00471e-07
 Reference value :  3.17691e-07
 Reference value :  3.34541e-07
No. of Data Rows : 68030

  Measurements for Transient Analysis

tphl                =  7.45773e-10 targ=  2.96492e-08 trig=  2.89034e-08
tplh                =  1.96287e-09 targ=  1.10673e-07 trig=  1.08710e-07
i_vdd_avg           =  -1.03759e-06 from=  1.00000e-08 to=  3.30001e-07
power_avg_uw        =  2.04637e+00


Total analysis time (seconds) = 5.22678

Total elapsed time (seconds) = 5.515 

Total DRAM available = 16384.000 MB.
DRAM currently available =  192.141 MB.
Maximum ngspice program size =   27.000 MB.
Current ngspice program size =   27.000 MB.

