
Note: Compatibility modes selected: hs a


Circuit: SKY130 library cell oai21_4 A1_to_Y__A2=0,B1=1

option SCALE: Scale is set to 1e-06 for instance and model parameters
Doing analysis at TEMP = 108.882740 and TNOM = 27.000000

Using KLU as Direct Linear Solver
 Reference value :  0.00000e+00
 Reference value :  1.64914e-08
 Reference value :  3.27375e-08
 Reference value :  4.92796e-08
 Reference value :  6.56496e-08
 Reference value :  8.20196e-08
 Reference value :  9.83346e-08
 Reference value :  1.14722e-07
 Reference value :  1.31462e-07
 Reference value :  1.47802e-07
 Reference value :  1.64322e-07
 Reference value :  1.80552e-07
 Reference value :  1.97080e-07
 Reference value :  2.13560e-07
 Reference value :  2.29600e-07
 Reference value :  2.45920e-07
 Reference value :  2.62050e-07
 Reference value :  2.78262e-07
 Reference value :  2.94527e-07
 Reference value :  3.10822e-07
 Reference value :  3.27167e-07
No. of Data Rows : 68030

  Measurements for Transient Analysis

tphl                =  3.48875e-10 targ=  2.92424e-08 trig=  2.88936e-08
tplh                =  1.08702e-09 targ=  1.09768e-07 trig=  1.08681e-07
i_vdd_avg           =  -1.01605e-06 from=  1.00000e-08 to=  3.30002e-07
power_avg_uw        =  2.00641e+00


Total analysis time (seconds) = 5.35317

Total elapsed time (seconds) = 5.622 

Total DRAM available = 16384.000 MB.
DRAM currently available =  197.031 MB.
Maximum ngspice program size =   26.672 MB.
Current ngspice program size =   26.672 MB.

