
Note: Compatibility modes selected: hs a


Circuit: SKY130 library cell mux2_4 A0_to_X__A1=0,S=0

option SCALE: Scale is set to 1e-06 for instance and model parameters
Doing analysis at TEMP = 60.105930 and TNOM = 27.000000

Using KLU as Direct Linear Solver
 Reference value :  0.00000e+00
 Reference value :  2.08214e-08
 Reference value :  4.20625e-08
 Reference value :  6.35875e-08
 Reference value :  8.49375e-08
 Reference value :  1.06182e-07
 Reference value :  1.27842e-07
 Reference value :  1.49147e-07
 Reference value :  1.70482e-07
 Reference value :  1.91813e-07
 Reference value :  2.13102e-07
 Reference value :  2.34172e-07
 Reference value :  2.55882e-07
 Reference value :  2.76931e-07
 Reference value :  2.98242e-07
 Reference value :  3.19592e-07
No. of Data Rows : 68032

  Measurements for Transient Analysis

tplh                =  9.19350e-10 targ=  3.06518e-08 trig=  2.97325e-08
tphl                =  1.95000e-09 targ=  1.13147e-07 trig=  1.11197e-07
i_vdd_avg           =  -3.42580e-07 from=  1.00000e-08 to=  3.30002e-07
power_avg_uw        =  6.12276e-01


Total analysis time (seconds) = 4.12799

Total elapsed time (seconds) = 4.396 

Total DRAM available = 16384.000 MB.
DRAM currently available =  166.297 MB.
Maximum ngspice program size =   25.484 MB.
Current ngspice program size =   25.484 MB.

