
Note: Compatibility modes selected: hs a


Circuit: SKY130 library cell nor2_1 A_to_Y__B=0

option SCALE: Scale is set to 1e-06 for instance and model parameters
Doing analysis at TEMP = 18.050385 and TNOM = 27.000000

Using KLU as Direct Linear Solver
 Reference value :  0.00000e+00
 Reference value :  8.02620e-08
 Reference value :  1.61537e-07
 Reference value :  2.41427e-07
 Reference value :  3.21457e-07
No. of Data Rows : 68032

  Measurements for Transient Analysis

tphl                =  1.07527e-09 targ=  2.73375e-08 trig=  2.62623e-08
tplh                =  2.29148e-09 targ=  1.03078e-07 trig=  1.00787e-07
i_vdd_avg           =  -5.17608e-07 from=  1.00000e-08 to=  3.30002e-07
power_avg_uw        =  9.02304e-01


Total analysis time (seconds) = 1.08216

Total elapsed time (seconds) = 1.335 

Total DRAM available = 16384.000 MB.
DRAM currently available =   99.703 MB.
Maximum ngspice program size =   26.250 MB.
Current ngspice program size =   26.250 MB.

