
Note: Compatibility modes selected: hs a


Circuit: SKY130 library cell aoi21_4 A1_to_Y__A2=1,B1=0

option SCALE: Scale is set to 1e-06 for instance and model parameters
Doing analysis at TEMP = -0.704935 and TNOM = 27.000000

Using KLU as Direct Linear Solver
 Reference value :  0.00000e+00
 Reference value :  1.65164e-08
 Reference value :  3.31275e-08
 Reference value :  4.95625e-08
 Reference value :  6.59325e-08
 Reference value :  8.22875e-08
 Reference value :  9.87675e-08
 Reference value :  1.15308e-07
 Reference value :  1.31863e-07
 Reference value :  1.48488e-07
 Reference value :  1.64973e-07
 Reference value :  1.81313e-07
 Reference value :  1.97838e-07
 Reference value :  2.14378e-07
 Reference value :  2.31063e-07
 Reference value :  2.47223e-07
 Reference value :  2.63778e-07
 Reference value :  2.80068e-07
 Reference value :  2.96748e-07
 Reference value :  3.13133e-07
 Reference value :  3.29463e-07
No. of Data Rows : 68032

  Measurements for Transient Analysis

tphl                =  1.40844e-09 targ=  2.95060e-08 trig=  2.80975e-08
tplh                =  2.87410e-09 targ=  1.09167e-07 trig=  1.06293e-07
i_vdd_avg           =  -1.71507e-06 from=  1.00000e-08 to=  3.30003e-07
power_avg_uw        =  3.08681e+00


Total analysis time (seconds) = 5.33112

Total elapsed time (seconds) = 5.606 

Total DRAM available = 16384.000 MB.
DRAM currently available =  120.766 MB.
Maximum ngspice program size =   27.609 MB.
Current ngspice program size =   27.609 MB.

