
Note: Compatibility modes selected: hs a


Circuit: SKY130 library cell oai21_4 A1_to_Y__A2=0,B1=1

option SCALE: Scale is set to 1e-06 for instance and model parameters
Doing analysis at TEMP = 48.432810 and TNOM = 27.000000

Using KLU as Direct Linear Solver
 Reference value :  0.00000e+00
 Reference value :  1.64964e-08
 Reference value :  3.28303e-08
 Reference value :  4.90653e-08
 Reference value :  6.53703e-08
 Reference value :  8.17953e-08
 Reference value :  9.82180e-08
 Reference value :  1.14583e-07
 Reference value :  1.30558e-07
 Reference value :  1.46893e-07
 Reference value :  1.63128e-07
 Reference value :  1.79903e-07
 Reference value :  1.96510e-07
 Reference value :  2.12990e-07
 Reference value :  2.29785e-07
 Reference value :  2.46455e-07
 Reference value :  2.62948e-07
 Reference value :  2.79433e-07
 Reference value :  2.96063e-07
 Reference value :  3.12403e-07
 Reference value :  3.29108e-07
No. of Data Rows : 68034

  Measurements for Transient Analysis

tphl                =  3.53548e-10 targ=  2.50949e-08 trig=  2.47414e-08
tplh                =  6.44339e-10 targ=  9.68685e-08 trig=  9.62242e-08
i_vdd_avg           =  -6.60103e-07 from=  1.00000e-08 to=  3.30003e-07
power_avg_uw        =  1.19944e+00


Total analysis time (seconds) = 5.30373

Total elapsed time (seconds) = 5.573 

Total DRAM available = 16384.000 MB.
DRAM currently available =  136.141 MB.
Maximum ngspice program size =   28.500 MB.
Current ngspice program size =   28.500 MB.

