
Note: Compatibility modes selected: hs a


Circuit: SKY130 library cell xor2_4 A_to_X__B=0

option SCALE: Scale is set to 1e-06 for instance and model parameters
Doing analysis at TEMP = 36.449288 and TNOM = 27.000000

Using KLU as Direct Linear Solver
 Reference value :  0.00000e+00
 Reference value :  1.01364e-08
 Reference value :  2.03114e-08
 Reference value :  3.04175e-08
 Reference value :  4.06187e-08
 Reference value :  5.08787e-08
 Reference value :  6.12737e-08
 Reference value :  7.16137e-08
 Reference value :  8.20387e-08
 Reference value :  9.33537e-08
 Reference value :  1.06474e-07
 Reference value :  1.20455e-07
 Reference value :  1.36805e-07
 Reference value :  1.54015e-07
 Reference value :  1.71225e-07
 Reference value :  1.88658e-07
 Reference value :  2.07939e-07
 Reference value :  2.29509e-07
 Reference value :  2.52884e-07
 Reference value :  2.77580e-07
 Reference value :  3.02945e-07
 Reference value :  3.29420e-07
No. of Data Rows : 68032

  Measurements for Transient Analysis

tplh                =  6.65437e-10 targ=  2.81510e-08 trig=  2.74856e-08
tphl                =  1.05808e-09 targ=  1.05515e-07 trig=  1.04457e-07
i_vdd_avg           =  -1.70577e-06 from=  1.00000e-08 to=  3.30005e-07
power_avg_uw        =  3.26527e+00


Total analysis time (seconds) = 5.36409

Total elapsed time (seconds) = 5.659 

Total DRAM available = 16384.000 MB.
DRAM currently available =  256.578 MB.
Maximum ngspice program size =   28.859 MB.
Current ngspice program size =   28.859 MB.

