
Note: Compatibility modes selected: hs a


Circuit: SKY130 library cell xor2_4 A_to_X__B=0

option SCALE: Scale is set to 1e-06 for instance and model parameters
Doing analysis at TEMP = 44.961855 and TNOM = 27.000000

Using KLU as Direct Linear Solver
 Reference value :  0.00000e+00
 Reference value :  9.75140e-09
 Reference value :  1.97714e-08
 Reference value :  2.95618e-08
 Reference value :  3.95568e-08
 Reference value :  4.94968e-08
 Reference value :  5.95518e-08
 Reference value :  6.94318e-08
 Reference value :  7.92218e-08
 Reference value :  8.90168e-08
 Reference value :  9.88711e-08
 Reference value :  1.08861e-07
 Reference value :  1.18936e-07
 Reference value :  1.29006e-07
 Reference value :  1.38996e-07
 Reference value :  1.49051e-07
 Reference value :  1.59131e-07
 Reference value :  1.69191e-07
 Reference value :  1.79036e-07
 Reference value :  1.88852e-07
 Reference value :  1.98797e-07
 Reference value :  2.08597e-07
 Reference value :  2.18612e-07
 Reference value :  2.28497e-07
 Reference value :  2.38327e-07
 Reference value :  2.48252e-07
 Reference value :  2.57861e-07
 Reference value :  2.68056e-07
 Reference value :  2.78201e-07
 Reference value :  2.88516e-07
 Reference value :  2.98916e-07
 Reference value :  3.09251e-07
 Reference value :  3.19636e-07
 Reference value :  3.30136e-07
No. of Data Rows : 68032

  Measurements for Transient Analysis

tplh                =  1.31985e-09 targ=  2.59695e-08 trig=  2.46497e-08
tphl                =  7.15547e-10 targ=  9.66645e-08 trig=  9.59490e-08
i_vdd_avg           =  -1.86543e-06 from=  1.00000e-08 to=  3.30001e-07
power_avg_uw        =  3.05012e+00


Total analysis time (seconds) = 8.71117

Total elapsed time (seconds) = 9.007 

Total DRAM available = 16384.000 MB.
DRAM currently available =  148.891 MB.
Maximum ngspice program size =   30.047 MB.
Current ngspice program size =   30.047 MB.

