
Note: Compatibility modes selected: hs a


Circuit: SKY130 library cell nor2_1 A_to_Y__B=0

option SCALE: Scale is set to 1e-06 for instance and model parameters
Doing analysis at TEMP = 63.143709 and TNOM = 27.000000

Using KLU as Direct Linear Solver
 Reference value :  0.00000e+00
 Reference value :  8.06129e-08
 Reference value :  1.60478e-07
 Reference value :  2.40963e-07
 Reference value :  3.21683e-07
No. of Data Rows : 68032

  Measurements for Transient Analysis

tphl                =  8.38238e-10 targ=  2.52309e-08 trig=  2.43927e-08
tplh                =  3.31349e-09 targ=  9.84916e-08 trig=  9.51781e-08
i_vdd_avg           =  -1.42939e-06 from=  1.00000e-08 to=  3.30003e-07
power_avg_uw        =  2.39781e+00


Total analysis time (seconds) = 1.09596

Total elapsed time (seconds) = 1.356 

Total DRAM available = 16384.000 MB.
DRAM currently available =  166.297 MB.
Maximum ngspice program size =   24.891 MB.
Current ngspice program size =   24.891 MB.

