
Note: Compatibility modes selected: hs a


Circuit: SKY130 library cell nor2_4 A_to_Y__B=0

option SCALE: Scale is set to 1e-06 for instance and model parameters
Doing analysis at TEMP = 42.645986 and TNOM = 27.000000

Using KLU as Direct Linear Solver
 Reference value :  0.00000e+00
 Reference value :  2.40775e-08
 Reference value :  4.81470e-08
 Reference value :  7.25370e-08
 Reference value :  9.69520e-08
 Reference value :  1.21612e-07
 Reference value :  1.46032e-07
 Reference value :  1.70622e-07
 Reference value :  1.95247e-07
 Reference value :  2.20212e-07
 Reference value :  2.45747e-07
 Reference value :  2.71367e-07
 Reference value :  2.97202e-07
 Reference value :  3.22907e-07
No. of Data Rows : 68032

  Measurements for Transient Analysis

tphl                =  1.14577e-09 targ=  2.78705e-08 trig=  2.67248e-08
tplh                =  2.30460e-09 targ=  1.04479e-07 trig=  1.02174e-07
i_vdd_avg           =  -1.70093e-06 from=  1.00000e-08 to=  3.30002e-07
power_avg_uw        =  2.90545e+00


Total analysis time (seconds) = 3.46628

Total elapsed time (seconds) = 3.731 

Total DRAM available = 16384.000 MB.
DRAM currently available =  198.562 MB.
Maximum ngspice program size =   26.359 MB.
Current ngspice program size =   26.359 MB.

