
Note: Compatibility modes selected: hs a


Circuit: SKY130 library cell nand3_1 A_to_Y__B=1,C=1

option SCALE: Scale is set to 1e-06 for instance and model parameters
Doing analysis at TEMP = 39.480208 and TNOM = 27.000000

Using KLU as Direct Linear Solver
 Reference value :  0.00000e+00
 Reference value :  5.70612e-08
 Reference value :  1.15065e-07
 Reference value :  1.72610e-07
 Reference value :  2.30406e-07
 Reference value :  2.88230e-07
No. of Data Rows : 68034

  Measurements for Transient Analysis

tphl                =  1.24179e-09 targ=  2.56312e-08 trig=  2.43894e-08
tplh                =  1.20455e-09 targ=  9.63727e-08 trig=  9.51681e-08
i_vdd_avg           =  -1.35395e-06 from=  1.00000e-08 to=  3.30005e-07
power_avg_uw        =  2.54302e+00


Total analysis time (seconds) = 1.52502

Total elapsed time (seconds) = 1.775 

Total DRAM available = 16384.000 MB.
DRAM currently available =  169.781 MB.
Maximum ngspice program size =   27.781 MB.
Current ngspice program size =   27.781 MB.

