
Note: Compatibility modes selected: hs a


Circuit: SKY130 library cell mux2_4 A0_to_X__A1=0,S=0

option SCALE: Scale is set to 1e-06 for instance and model parameters
Doing analysis at TEMP = -24.197527 and TNOM = 27.000000

Using KLU as Direct Linear Solver
 Reference value :  0.00000e+00
 Reference value :  2.15814e-08
 Reference value :  4.25693e-08
 Reference value :  6.38693e-08
 Reference value :  8.49943e-08
 Reference value :  1.06191e-07
 Reference value :  1.27386e-07
 Reference value :  1.48761e-07
 Reference value :  1.70156e-07
 Reference value :  1.91414e-07
 Reference value :  2.12869e-07
 Reference value :  2.34439e-07
 Reference value :  2.55889e-07
 Reference value :  2.77071e-07
 Reference value :  2.98526e-07
 Reference value :  3.19486e-07
No. of Data Rows : 68030

  Measurements for Transient Analysis

tplh                =  6.91062e-10 targ=  2.55520e-08 trig=  2.48609e-08
tphl                =  9.57564e-10 targ=  9.75403e-08 trig=  9.65827e-08
i_vdd_avg           =  -1.18805e-06 from=  1.00000e-08 to=  3.30001e-07
power_avg_uw        =  2.14103e+00


Total analysis time (seconds) = 4.11543

Total elapsed time (seconds) = 4.394 

Total DRAM available = 16384.000 MB.
DRAM currently available =  139.656 MB.
Maximum ngspice program size =   27.844 MB.
Current ngspice program size =   27.844 MB.

