
Note: Compatibility modes selected: hs a


Circuit: SKY130 library cell aoi21_4 A1_to_Y__A2=1,B1=0

option SCALE: Scale is set to 1e-06 for instance and model parameters
Doing analysis at TEMP = 16.412045 and TNOM = 27.000000

Using KLU as Direct Linear Solver
 Reference value :  8.56400e-10
 Reference value :  1.90464e-08
 Reference value :  3.56339e-08
 Reference value :  5.17589e-08
 Reference value :  6.80539e-08
 Reference value :  8.40439e-08
 Reference value :  1.00285e-07
 Reference value :  1.16660e-07
 Reference value :  1.32875e-07
 Reference value :  1.49425e-07
 Reference value :  1.65685e-07
 Reference value :  1.81855e-07
 Reference value :  1.98109e-07
 Reference value :  2.14384e-07
 Reference value :  2.31189e-07
 Reference value :  2.47374e-07
 Reference value :  2.63415e-07
 Reference value :  2.79770e-07
 Reference value :  2.96110e-07
 Reference value :  3.12535e-07
 Reference value :  3.28675e-07
No. of Data Rows : 68030

  Measurements for Transient Analysis

tphl                =  4.66163e-10 targ=  2.46094e-08 trig=  2.41432e-08
tplh                =  1.38462e-09 targ=  9.58142e-08 trig=  9.44296e-08
i_vdd_avg           =  -2.03431e-06 from=  1.00000e-08 to=  3.30000e-07
power_avg_uw        =  3.36904e+00


Total analysis time (seconds) = 5.40364

Total elapsed time (seconds) = 5.636 

Total DRAM available = 16384.000 MB.
DRAM currently available =  179.016 MB.
Maximum ngspice program size =   26.734 MB.
Current ngspice program size =   26.734 MB.

