
Note: Compatibility modes selected: hs a


Circuit: SKY130 library cell xor2_1 A_to_X__B=0

option SCALE: Scale is set to 1e-06 for instance and model parameters
Doing analysis at TEMP = 67.433782 and TNOM = 27.000000

Using KLU as Direct Linear Solver
 Reference value :  0.00000e+00
 Reference value :  3.68043e-08
 Reference value :  7.43043e-08
 Reference value :  1.12126e-07
 Reference value :  1.49461e-07
 Reference value :  1.87813e-07
 Reference value :  2.25589e-07
 Reference value :  2.63724e-07
 Reference value :  3.02641e-07
No. of Data Rows : 68030

  Measurements for Transient Analysis

tplh                =  2.46333e-09 targ=  2.89092e-08 trig=  2.64459e-08
tphl                =  1.37140e-09 targ=  1.02709e-07 trig=  1.01338e-07
i_vdd_avg           =  -1.04905e-06 from=  1.00000e-08 to=  3.30001e-07
power_avg_uw        =  1.78106e+00


Total analysis time (seconds) = 2.25954

Total elapsed time (seconds) = 2.516 

Total DRAM available = 16384.000 MB.
DRAM currently available =  175.516 MB.
Maximum ngspice program size =   25.594 MB.
Current ngspice program size =   25.594 MB.

