
Note: Compatibility modes selected: hs a


Circuit: SKY130 library cell inv_1 A_to_Y

option SCALE: Scale is set to 1e-06 for instance and model parameters
Doing analysis at TEMP = 103.570090 and TNOM = 27.000000

Using KLU as Direct Linear Solver
 Reference value :  0.00000e+00
 Reference value :  1.34351e-07
 Reference value :  2.67981e-07
No. of Data Rows : 68030

  Measurements for Transient Analysis

tphl                =  1.39015e-09 targ=  2.77036e-08 trig=  2.63135e-08
tplh                =  2.04370e-09 targ=  1.02984e-07 trig=  1.00940e-07
i_vdd_avg           =  -9.82950e-07 from=  1.00000e-08 to=  3.30001e-07
power_avg_uw        =  1.75648e+00


Total analysis time (seconds) = 0.648588

Total elapsed time (seconds) = 0.904 

Total DRAM available = 16384.000 MB.
DRAM currently available =  157.141 MB.
Maximum ngspice program size =   25.266 MB.
Current ngspice program size =   25.266 MB.

