
Note: No compatibility mode selected!


Circuit: NOR2 seed characterization sample 6110048

Doing analysis at TEMP = 25.752700 and TNOM = 27.000000

Using SPARSE 1.3 as Direct Linear Solver

Initial Transient Solution
--------------------------

Node                                   Voltage
----                                   -------
vdd                                    1.84639
in                                           0
out                                    1.84639
pmid                                   1.84639
vin#branch                                   0
vdd#branch                        -3.76568e-12

 Reference value :  3.13988e-08
 Reference value :  7.06748e-08
 Reference value :  1.12439e-07
No. of Data Rows : 60041

  Measurements for Transient Analysis

tphl                =  1.62252e-10 targ=  2.27971e-09 trig=  2.11746e-09
tplh                =  4.86701e-10 targ=  2.28391e-08 trig=  2.23524e-08
i_vdd_avg           =  -3.56335e-06 from=  5.00000e-09 to=  1.10001e-07
power_avg_uw        =  6.57933e+00


Total analysis time (seconds) = 0.699687

Total elapsed time (seconds) = 0.803 

Total DRAM available = 16384.000 MB.
DRAM currently available =  114.547 MB.
Maximum ngspice program size =   16.531 MB.
Current ngspice program size =   16.531 MB.

