
Note: No compatibility mode selected!


Circuit: XOR2 seed characterization sample 6110074

Doing analysis at TEMP = 48.471100 and TNOM = 27.000000

Using SPARSE 1.3 as Direct Linear Solver

Initial Transient Solution
--------------------------

Node                                   Voltage
----                                   -------
vdd                                    1.63835
in                                           0
b                                      1.63835
abar                                   1.63835
bbar                               1.60131e-09
out                                    1.63835
vb#branch                                    0
vin#branch                         1.99494e-12
vdd#branch                         -1.0506e-11

 Reference value :  1.95542e-08
 Reference value :  4.17895e-08
 Reference value :  6.56355e-08
 Reference value :  9.33142e-08
No. of Data Rows : 60047

  Measurements for Transient Analysis

tphl                =  4.93741e-10 targ=  2.65136e-09 trig=  2.15762e-09
tplh                =  5.83681e-10 targ=  2.30565e-08 trig=  2.24728e-08
i_vdd_avg           =  -5.63939e-06 from=  5.00000e-09 to=  1.10001e-07
power_avg_uw        =  9.23930e+00


Total analysis time (seconds) = 1.14605

Total elapsed time (seconds) = 1.239 

Total DRAM available = 16384.000 MB.
DRAM currently available =   83.969 MB.
Maximum ngspice program size =   15.781 MB.
Current ngspice program size =   15.781 MB.

