
Note: No compatibility mode selected!


Circuit: XOR2 seed characterization sample 6110077

Doing analysis at TEMP = 63.830600 and TNOM = 27.000000

Using SPARSE 1.3 as Direct Linear Solver

Initial Transient Solution
--------------------------

Node                                   Voltage
----                                   -------
vdd                                    1.77909
in                                           0
b                                      1.77909
abar                                   1.77909
bbar                               1.37815e-09
out                                    1.77909
vb#branch                                    0
vin#branch                         3.27956e-12
vdd#branch                        -1.33904e-11

 Reference value :  1.71775e-08
 Reference value :  3.98679e-08
 Reference value :  6.36539e-08
 Reference value :  9.11855e-08
No. of Data Rows : 60044

  Measurements for Transient Analysis

tphl                =  2.40435e-10 targ=  2.32867e-09 trig=  2.08824e-09
tplh                =  2.47225e-10 targ=  2.25119e-08 trig=  2.22647e-08
i_vdd_avg           =  -3.78463e-06 from=  5.00000e-09 to=  1.10002e-07
power_avg_uw        =  6.73320e+00


Total analysis time (seconds) = 1.16

Total elapsed time (seconds) = 1.262 

Total DRAM available = 16384.000 MB.
DRAM currently available =  102.109 MB.
Maximum ngspice program size =   15.891 MB.
Current ngspice program size =   15.891 MB.

