
Note: No compatibility mode selected!


Circuit: GF180MCU library cell aoi21_4 A1_to_ZN__A2=1,B=0

Doing analysis at TEMP = -27.545486 and TNOM = 27.000000

Using SPARSE 1.3 as Direct Linear Solver

Initial Transient Solution
--------------------------

Node                                   Voltage
----                                   -------
vdd                                    1.87443
a1                                           0
a2                                     1.87443
b                                            0
xu1.net_0_0                        3.40859e-11
zn                                     1.87443
xu1.net_0_1                        3.40854e-11
xu1.net_0_2                        3.40859e-11
xu1.net_0_3                        3.40854e-11
xu1.net_1                              1.87443
vfix_b#branch                                0
vfix_a2#branch                               0
vin#branch                                   0
vdd#branch                        -1.51668e-11

 Reference value :  1.96014e-08
 Reference value :  4.89305e-08
 Reference value :  8.06155e-08
 Reference value :  1.09844e-07
 Reference value :  1.40804e-07
 Reference value :  1.69104e-07
 Reference value :  2.00731e-07
 Reference value :  2.32686e-07
 Reference value :  2.61949e-07
 Reference value :  2.94214e-07
 Reference value :  3.24574e-07
No. of Data Rows : 68034

  Measurements for Transient Analysis

tphl                =  3.63135e-10 targ=  2.62897e-08 trig=  2.59265e-08
tplh                =  1.15254e-09 targ=  1.00932e-07 trig=  9.97795e-08
i_vdd_avg           =  -4.83633e-07 from=  1.00000e-08 to=  3.30004e-07
power_avg_uw        =  9.06537e-01


Total analysis time (seconds) = 3.03946

Total elapsed time (seconds) = 3.124 

Total DRAM available = 16384.000 MB.
DRAM currently available =  168.047 MB.
Maximum ngspice program size =   16.891 MB.
Current ngspice program size =   16.891 MB.

