
Note: No compatibility mode selected!


Circuit: GF180MCU library cell nand2_4 A1_to_ZN__A2=1

Doing analysis at TEMP = -3.894688 and TNOM = 27.000000

Using SPARSE 1.3 as Direct Linear Solver

Initial Transient Solution
--------------------------

Node                                   Voltage
----                                   -------
vdd                                    1.85857
a1                                           0
a2                                     1.85857
xu1.net_0_0                        3.75024e-10
zn                                     1.85857
xu1.net_0_1                        3.75024e-10
xu1.net_0_2                        3.75024e-10
xu1.net_0_3                        3.75024e-10
vfix_a2#branch                               0
vin#branch                                   0
vdd#branch                        -7.87203e-12

 Reference value :  2.98275e-08
 Reference value :  7.27139e-08
 Reference value :  1.15620e-07
 Reference value :  1.59820e-07
 Reference value :  2.05244e-07
 Reference value :  2.50959e-07
 Reference value :  2.93995e-07
 Reference value :  3.39165e-07
No. of Data Rows : 68030

  Measurements for Transient Analysis

tphl                =  1.35270e-09 targ=  3.01109e-08 trig=  2.87582e-08
tplh                =  2.83672e-09 targ=  1.11111e-07 trig=  1.08275e-07
i_vdd_avg           =  -1.73476e-06 from=  1.00000e-08 to=  3.30000e-07
power_avg_uw        =  3.22416e+00


Total analysis time (seconds) = 2.08903

Total elapsed time (seconds) = 2.174 

Total DRAM available = 16384.000 MB.
DRAM currently available =  168.047 MB.
Maximum ngspice program size =   16.625 MB.
Current ngspice program size =   16.625 MB.

