
Note: No compatibility mode selected!


Circuit: GF180MCU library cell aoi21_1 A1_to_ZN__A2=1,B=0

Doing analysis at TEMP = -37.262237 and TNOM = 27.000000

Using SPARSE 1.3 as Direct Linear Solver

Initial Transient Solution
--------------------------

Node                                   Voltage
----                                   -------
vdd                                     1.7055
a1                                           0
a2                                      1.7055
b                                            0
xu1.net_0                           1.1385e-11
zn                                      1.7055
xu1.net_1                               1.7055
vfix_b#branch                                0
vfix_a2#branch                               0
vin#branch                                   0
vdd#branch                        -3.43814e-12

 Reference value :  6.90280e-08
 Reference value :  1.79974e-07
 Reference value :  2.84869e-07
No. of Data Rows : 68032

  Measurements for Transient Analysis

tphl                =  2.38050e-09 targ=  2.64858e-08 trig=  2.41053e-08
tplh                =  6.37195e-09 targ=  1.00688e-07 trig=  9.43158e-08
i_vdd_avg           =  -1.54558e-06 from=  1.00000e-08 to=  3.30004e-07
power_avg_uw        =  2.63598e+00


Total analysis time (seconds) = 0.881386

Total elapsed time (seconds) = 0.943 

Total DRAM available = 16384.000 MB.
DRAM currently available =  367.875 MB.
Maximum ngspice program size =   18.094 MB.
Current ngspice program size =   18.094 MB.

