
Note: No compatibility mode selected!


Circuit: GF180MCU library cell xor2_1 A1_to_Z__A2=0

Doing analysis at TEMP = -3.941423 and TNOM = 27.000000

Using SPARSE 1.3 as Direct Linear Solver

Initial Transient Solution
--------------------------

Node                                   Voltage
----                                   -------
vdd                                    1.62963
a1                                           0
a2                                           0
xu1.i                                  1.62963
z                                  2.74218e-08
xu1.net_0                          4.76824e-09
xu1.net_2                              1.62963
xu1.net_1                              0.65649
vfix_a2#branch                               0
vin#branch                                   0
vdd#branch                        -1.02152e-11

 Reference value :  4.61951e-08
 Reference value :  1.16268e-07
 Reference value :  1.87833e-07
 Reference value :  2.54555e-07
 Reference value :  3.20433e-07
No. of Data Rows : 68034

  Measurements for Transient Analysis

tplh                =  8.56885e-09 targ=  3.60876e-08 trig=  2.75188e-08
tphl                =  3.69176e-09 targ=  1.08248e-07 trig=  1.04556e-07
i_vdd_avg           =  -1.70118e-06 from=  1.00000e-08 to=  3.30003e-07
power_avg_uw        =  2.77229e+00


Total analysis time (seconds) = 1.36092

Total elapsed time (seconds) = 1.441 

Total DRAM available = 16384.000 MB.
DRAM currently available =  168.047 MB.
Maximum ngspice program size =   18.188 MB.
Current ngspice program size =   18.188 MB.

