
Note: No compatibility mode selected!


Circuit: GF180MCU library cell nor2_1 A1_to_ZN__A2=0

Doing analysis at TEMP = 75.190128 and TNOM = 27.000000

Using SPARSE 1.3 as Direct Linear Solver

Initial Transient Solution
--------------------------

Node                                   Voltage
----                                   -------
vdd                                    1.89076
a1                                           0
a2                                           0
zn                                     1.89076
xu1.net_0                              1.89076
vfix_a2#branch                               0
vin#branch                                   0
vdd#branch                        -5.11558e-11

 Reference value :  9.53759e-08
 Reference value :  2.32296e-07
No. of Data Rows : 68034

  Measurements for Transient Analysis

tphl                =  2.16627e-10 targ=  2.97758e-08 trig=  2.95592e-08
tplh                =  2.43655e-09 targ=  1.13114e-07 trig=  1.10678e-07
i_vdd_avg           =  -2.59862e-07 from=  1.00000e-08 to=  3.30004e-07
power_avg_uw        =  4.91336e-01


Total analysis time (seconds) = 0.727323

Total elapsed time (seconds) = 0.801 

Total DRAM available = 16384.000 MB.
DRAM currently available =  213.203 MB.
Maximum ngspice program size =   15.656 MB.
Current ngspice program size =   15.656 MB.

