
Note: No compatibility mode selected!


Circuit: GF180MCU library cell nor2_1 A1_to_ZN__A2=0

Doing analysis at TEMP = -27.162335 and TNOM = 27.000000

Using SPARSE 1.3 as Direct Linear Solver

Initial Transient Solution
--------------------------

Node                                   Voltage
----                                   -------
vdd                                    1.66071
a1                                           0
a2                                           0
zn                                     1.66071
xu1.net_0                              1.66071
vfix_a2#branch                               0
vin#branch                                   0
vdd#branch                        -3.36213e-12

 Reference value :  1.01043e-07
 Reference value :  2.39668e-07
No. of Data Rows : 68032

  Measurements for Transient Analysis

tphl                =  3.90329e-09 targ=  3.10558e-08 trig=  2.71526e-08
tplh                =  1.02971e-08 targ=  1.13755e-07 trig=  1.03458e-07
i_vdd_avg           =  -1.91109e-06 from=  1.00000e-08 to=  3.30003e-07
power_avg_uw        =  3.17375e+00


Total analysis time (seconds) = 0.692294

Total elapsed time (seconds) = 0.770 

Total DRAM available = 16384.000 MB.
DRAM currently available =  246.078 MB.
Maximum ngspice program size =   16.969 MB.
Current ngspice program size =   16.969 MB.

