
Note: No compatibility mode selected!


Circuit: GF180MCU library cell nand3_4 A1_to_ZN__A2=1,A3=1

Doing analysis at TEMP = 71.445696 and TNOM = 27.000000

Using SPARSE 1.3 as Direct Linear Solver

Initial Transient Solution
--------------------------

Node                                   Voltage
----                                   -------
vdd                                    1.77167
a1                                           0
a2                                     1.77167
a3                                     1.77167
xu1.net_1_3                        9.01856e-08
xu1.net_0                          1.80371e-07
xu1.net_1_2                        9.01856e-08
xu1.net_1_1                        9.01856e-08
xu1.net_1_0                        9.01856e-08
xu1.net_0_0                        1.80371e-07
zn                                     1.77167
vfix_a3#branch                               0
vfix_a2#branch                               0
vin#branch                                   0
vdd#branch                         -8.0964e-11

 Reference value :  2.12164e-08
 Reference value :  5.05269e-08
 Reference value :  8.11069e-08
 Reference value :  1.09286e-07
 Reference value :  1.41826e-07
 Reference value :  1.73661e-07
 Reference value :  2.03902e-07
 Reference value :  2.35277e-07
 Reference value :  2.67816e-07
 Reference value :  2.98121e-07
 Reference value :  3.22876e-07
No. of Data Rows : 68032

  Measurements for Transient Analysis

tphl                =  1.02964e-09 targ=  2.54018e-08 trig=  2.43722e-08
tplh                =  1.16948e-09 targ=  9.62860e-08 trig=  9.51165e-08
i_vdd_avg           =  -1.48835e-06 from=  1.00000e-08 to=  3.30001e-07
power_avg_uw        =  2.63687e+00


Total analysis time (seconds) = 3.08097

Total elapsed time (seconds) = 3.159 

Total DRAM available = 16384.000 MB.
DRAM currently available =  151.797 MB.
Maximum ngspice program size =   16.688 MB.
Current ngspice program size =   16.688 MB.

