
Note: No compatibility mode selected!


Circuit: GF180MCU library cell nor2_4 A1_to_ZN__A2=0

Doing analysis at TEMP = -18.363615 and TNOM = 27.000000

Using SPARSE 1.3 as Direct Linear Solver

Initial Transient Solution
--------------------------

Node                                   Voltage
----                                   -------
vdd                                     1.7995
a1                                           0
a2                                           0
zn                                      1.7995
xu1.net_0_0                             1.7995
xu1.net_0_1                             1.7995
xu1.net_0_2                             1.7995
xu1.net_0_3                             1.7995
vfix_a2#branch                               0
vin#branch                                   0
vdd#branch                        -1.46946e-11

 Reference value :  3.10461e-08
 Reference value :  7.67911e-08
 Reference value :  1.19540e-07
 Reference value :  1.63280e-07
 Reference value :  2.07606e-07
 Reference value :  2.50396e-07
 Reference value :  2.93270e-07
 Reference value :  3.34050e-07
No. of Data Rows : 68034

  Measurements for Transient Analysis

tphl                =  9.02680e-10 targ=  2.59645e-08 trig=  2.50618e-08
tplh                =  1.99233e-09 targ=  9.91777e-08 trig=  9.71853e-08
i_vdd_avg           =  -1.63983e-06 from=  1.00000e-08 to=  3.30005e-07
power_avg_uw        =  2.95088e+00


Total analysis time (seconds) = 2.11868

Total elapsed time (seconds) = 2.181 

Total DRAM available = 16384.000 MB.
DRAM currently available =  151.281 MB.
Maximum ngspice program size =   13.094 MB.
Current ngspice program size =   12.906 MB.

