
Note: No compatibility mode selected!


Circuit: GF180MCU library cell nand3_1 A1_to_ZN__A2=1,A3=1

Doing analysis at TEMP = -14.211675 and TNOM = 27.000000

Using SPARSE 1.3 as Direct Linear Solver

Initial Transient Solution
--------------------------

Node                                   Voltage
----                                   -------
vdd                                    1.62727
a1                                           0
a2                                     1.62727
a3                                     1.62727
xu1.net_1                          1.44501e-10
xu1.net_0                          2.89003e-10
zn                                     1.62727
vfix_a3#branch                               0
vfix_a2#branch                               0
vin#branch                                   0
vdd#branch                        -1.67101e-12

 Reference value :  8.23931e-08
 Reference value :  1.99173e-07
 Reference value :  3.00839e-07
No. of Data Rows : 68032

  Measurements for Transient Analysis

tphl                =  4.19222e-09 targ=  2.84775e-08 trig=  2.42853e-08
tplh                =  4.89994e-09 targ=  9.97558e-08 trig=  9.48559e-08
i_vdd_avg           =  -1.58021e-06 from=  1.00000e-08 to=  3.30004e-07
power_avg_uw        =  2.57144e+00


Total analysis time (seconds) = 0.813057

Total elapsed time (seconds) = 0.875 

Total DRAM available = 16384.000 MB.
DRAM currently available =  367.875 MB.
Maximum ngspice program size =   14.875 MB.
Current ngspice program size =   14.875 MB.

