
Note: No compatibility mode selected!


Circuit: GF180MCU library cell inv_4 I_to_ZN

Doing analysis at TEMP = 84.703628 and TNOM = 27.000000

Using SPARSE 1.3 as Direct Linear Solver

Initial Transient Solution
--------------------------

Node                                   Voltage
----                                   -------
vdd                                    1.96554
i                                            0
zn                                     1.96554
vin#branch                                   0
vdd#branch                        -1.69781e-10

 Reference value :  5.43626e-08
 Reference value :  1.32818e-07
 Reference value :  2.18578e-07
 Reference value :  2.99613e-07
No. of Data Rows : 68032

  Measurements for Transient Analysis

tphl                =  9.09755e-10 targ=  2.82348e-08 trig=  2.73251e-08
tplh                =  2.24463e-09 targ=  1.06220e-07 trig=  1.03975e-07
i_vdd_avg           =  -2.13809e-06 from=  1.00000e-08 to=  3.30003e-07
power_avg_uw        =  4.20250e+00


Total analysis time (seconds) = 1.13285

Total elapsed time (seconds) = 1.212 

Total DRAM available = 16384.000 MB.
DRAM currently available =  190.562 MB.
Maximum ngspice program size =   16.891 MB.
Current ngspice program size =   16.891 MB.

