
Note: No compatibility mode selected!


Circuit: GF180MCU library cell nor2_4 A1_to_ZN__A2=0

Doing analysis at TEMP = 45.882703 and TNOM = 27.000000

Using SPARSE 1.3 as Direct Linear Solver

Initial Transient Solution
--------------------------

Node                                   Voltage
----                                   -------
vdd                                    1.89886
a1                                           0
a2                                           0
zn                                     1.89886
xu1.net_0_0                            1.89886
xu1.net_0_1                            1.89886
xu1.net_0_2                            1.89886
xu1.net_0_3                            1.89886
vfix_a2#branch                               0
vin#branch                                   0
vdd#branch                        -5.07657e-11

 Reference value :  2.98382e-08
 Reference value :  7.36632e-08
 Reference value :  1.18669e-07
 Reference value :  1.62994e-07
 Reference value :  2.05128e-07
 Reference value :  2.47708e-07
 Reference value :  2.91494e-07
 Reference value :  3.32784e-07
No. of Data Rows : 68032

  Measurements for Transient Analysis

tphl                =  9.48059e-10 targ=  2.72284e-08 trig=  2.62804e-08
tplh                =  2.24490e-09 targ=  1.03086e-07 trig=  1.00841e-07
i_vdd_avg           =  -1.45409e-06 from=  1.00000e-08 to=  3.30004e-07
power_avg_uw        =  2.76111e+00


Total analysis time (seconds) = 2.10269

Total elapsed time (seconds) = 2.187 

Total DRAM available = 16384.000 MB.
DRAM currently available =  187.547 MB.
Maximum ngspice program size =   18.656 MB.
Current ngspice program size =   18.656 MB.

