
Note: No compatibility mode selected!


Circuit: GF180MCU library cell aoi21_4 A1_to_ZN__A2=1,B=0

Doing analysis at TEMP = 75.436854 and TNOM = 27.000000

Using SPARSE 1.3 as Direct Linear Solver

Initial Transient Solution
--------------------------

Node                                   Voltage
----                                   -------
vdd                                    1.68217
a1                                           0
a2                                     1.68217
b                                            0
xu1.net_0_0                        1.14532e-07
zn                                     1.68217
xu1.net_0_1                        1.14532e-07
xu1.net_0_2                        1.14532e-07
xu1.net_0_3                        1.14532e-07
xu1.net_1                              1.68217
vfix_b#branch                                0
vfix_a2#branch                               0
vin#branch                                   0
vdd#branch                        -1.95701e-10

 Reference value :  1.95364e-08
 Reference value :  4.76959e-08
 Reference value :  7.87609e-08
 Reference value :  1.07799e-07
 Reference value :  1.38889e-07
 Reference value :  1.68834e-07
 Reference value :  1.99291e-07
 Reference value :  2.28486e-07
 Reference value :  2.60884e-07
 Reference value :  2.89994e-07
 Reference value :  3.18494e-07
No. of Data Rows : 68034

  Measurements for Transient Analysis

tphl                =  8.01508e-10 targ=  2.51882e-08 trig=  2.43867e-08
tplh                =  1.91132e-09 targ=  9.70714e-08 trig=  9.51600e-08
i_vdd_avg           =  -1.34991e-06 from=  1.00000e-08 to=  3.30004e-07
power_avg_uw        =  2.27077e+00


Total analysis time (seconds) = 3.1193

Total elapsed time (seconds) = 3.215 

Total DRAM available = 16384.000 MB.
DRAM currently available =  177.641 MB.
Maximum ngspice program size =   14.562 MB.
Current ngspice program size =   14.562 MB.

