
Note: No compatibility mode selected!


Circuit: GF180MCU library cell nor2_1 A1_to_ZN__A2=0

Doing analysis at TEMP = 21.511976 and TNOM = 27.000000

Using SPARSE 1.3 as Direct Linear Solver

Initial Transient Solution
--------------------------

Node                                   Voltage
----                                   -------
vdd                                    1.96536
a1                                           0
a2                                           0
zn                                     1.96536
xu1.net_0                              1.96536
vfix_a2#branch                               0
vin#branch                                   0
vdd#branch                        -5.70504e-12

 Reference value :  1.01315e-07
 Reference value :  2.51685e-07
No. of Data Rows : 68034

  Measurements for Transient Analysis

tphl                =  1.50829e-09 targ=  2.81523e-08 trig=  2.66440e-08
tplh                =  3.29311e-09 targ=  1.05225e-07 trig=  1.01932e-07
i_vdd_avg           =  -7.06031e-07 from=  1.00000e-08 to=  3.30003e-07
power_avg_uw        =  1.38760e+00


Total analysis time (seconds) = 0.639799

Total elapsed time (seconds) = 0.715 

Total DRAM available = 16384.000 MB.
DRAM currently available =  174.688 MB.
Maximum ngspice program size =   17.953 MB.
Current ngspice program size =   17.953 MB.

