
Note: No compatibility mode selected!


Circuit: GF180MCU library cell oai21_1 A1_to_ZN__A2=0,B=1

Doing analysis at TEMP = 75.881060 and TNOM = 27.000000

Using SPARSE 1.3 as Direct Linear Solver

Initial Transient Solution
--------------------------

Node                                   Voltage
----                                   -------
vdd                                    1.76931
a1                                           0
a2                                           0
b                                      1.76931
zn                                      1.7693
xu1.net_0                          2.31585e-07
xu1.net_1                               1.7693
vfix_b#branch                                0
vfix_a2#branch                               0
vin#branch                                   0
vdd#branch                        -5.03784e-11

 Reference value :  9.63554e-08
 Reference value :  2.17100e-07
 Reference value :  3.28078e-07
No. of Data Rows : 68034

  Measurements for Transient Analysis

tphl                =  5.93047e-09 targ=  3.56269e-08 trig=  2.96965e-08
tplh                =  1.26729e-08 targ=  1.23762e-07 trig=  1.11089e-07
i_vdd_avg           =  -2.32269e-06 from=  1.00000e-08 to=  3.30003e-07
power_avg_uw        =  4.10955e+00


Total analysis time (seconds) = 0.753724

Total elapsed time (seconds) = 0.824 

Total DRAM available = 16384.000 MB.
DRAM currently available =  246.078 MB.
Maximum ngspice program size =   18.016 MB.
Current ngspice program size =   18.016 MB.

