
Note: No compatibility mode selected!


Circuit: GF180MCU library cell oai21_4 A1_to_ZN__A2=0,B=1

Doing analysis at TEMP = 43.969552 and TNOM = 27.000000

Using SPARSE 1.3 as Direct Linear Solver

Initial Transient Solution
--------------------------

Node                                   Voltage
----                                   -------
vdd                                    1.92924
a1                                           0
a2                                           0
b                                      1.92924
zn                                     1.92924
xu1.net_0                          3.23682e-08
xu1.net_1_0                            1.92924
xu1.net_1_1                            1.92924
xu1.net_1_2                            1.92924
xu1.net_1_3                            1.92924
vfix_b#branch                                0
vfix_a2#branch                               0
vin#branch                                   0
vdd#branch                        -4.67253e-11

 Reference value :  2.05614e-08
 Reference value :  5.17207e-08
 Reference value :  8.32207e-08
 Reference value :  1.14479e-07
 Reference value :  1.46499e-07
 Reference value :  1.78864e-07
 Reference value :  2.09726e-07
 Reference value :  2.40461e-07
 Reference value :  2.69451e-07
 Reference value :  2.99994e-07
 Reference value :  3.28789e-07
No. of Data Rows : 68034

  Measurements for Transient Analysis

tphl                =  1.68713e-09 targ=  2.96962e-08 trig=  2.80091e-08
tplh                =  4.06803e-09 targ=  1.10095e-07 trig=  1.06027e-07
i_vdd_avg           =  -2.54739e-06 from=  1.00000e-08 to=  3.30004e-07
power_avg_uw        =  4.91453e+00


Total analysis time (seconds) = 2.97274

Total elapsed time (seconds) = 3.049 

Total DRAM available = 16384.000 MB.
DRAM currently available =  151.703 MB.
Maximum ngspice program size =   17.078 MB.
Current ngspice program size =   17.078 MB.

