
Note: No compatibility mode selected!


Circuit: GF180MCU library cell mux2_1 I0_to_Z__I1=0,S=0

Doing analysis at TEMP = 83.925639 and TNOM = 27.000000

Using SPARSE 1.3 as Direct Linear Solver

Initial Transient Solution
--------------------------

Node                                   Voltage
----                                   -------
vdd                                    1.96133
i0                                           0
i1                                           0
s                                            0
xu1.int04                              1.96132
z                                  1.19716e-08
xu1.net_1                            0.0539267
xu1.net_3                               1.4988
xu1.sel1_n                             1.96133
xu1.net_0                              1.96133
xu1.net_2                              1.96133
vfix_s#branch                                0
vfix_i1#branch                               0
vin#branch                                   0
vdd#branch                        -1.97907e-10

 Reference value :  3.60708e-08
 Reference value :  9.15058e-08
 Reference value :  1.48039e-07
 Reference value :  2.04041e-07
 Reference value :  2.62766e-07
 Reference value :  3.22314e-07
No. of Data Rows : 68034

  Measurements for Transient Analysis

tplh                =  3.43273e-09 targ=  3.12444e-08 trig=  2.78116e-08
tphl                =  3.44625e-09 targ=  1.08881e-07 trig=  1.05435e-07
i_vdd_avg           =  -2.04000e-06 from=  1.00000e-08 to=  3.30004e-07
power_avg_uw        =  4.00111e+00


Total analysis time (seconds) = 1.64148

Total elapsed time (seconds) = 1.710 

Total DRAM available = 16384.000 MB.
DRAM currently available =  151.797 MB.
Maximum ngspice program size =   16.078 MB.
Current ngspice program size =   16.078 MB.

