
Note: No compatibility mode selected!


Circuit: GF180MCU library cell xor2_1 A1_to_Z__A2=0

Doing analysis at TEMP = 106.416880 and TNOM = 27.000000

Using SPARSE 1.3 as Direct Linear Solver

Initial Transient Solution
--------------------------

Node                                   Voltage
----                                   -------
vdd                                    1.75161
a1                                           0
a2                                           0
xu1.i                                  1.75159
z                                  4.88996e-08
xu1.net_0                          2.43995e-08
xu1.net_2                               1.7516
xu1.net_1                              0.50567
vfix_a2#branch                               0
vin#branch                                   0
vdd#branch                        -4.65884e-10

 Reference value :  4.52362e-08
 Reference value :  1.11705e-07
 Reference value :  1.82050e-07
 Reference value :  2.49591e-07
 Reference value :  3.14655e-07
No. of Data Rows : 68034

  Measurements for Transient Analysis

tplh                =  2.01327e-09 targ=  2.76526e-08 trig=  2.56394e-08
tphl                =  1.68096e-09 targ=  1.00599e-07 trig=  9.89181e-08
i_vdd_avg           =  -4.45791e-07 from=  1.00000e-08 to=  3.30005e-07
power_avg_uw        =  7.80853e-01


Total analysis time (seconds) = 1.42245

Total elapsed time (seconds) = 1.503 

Total DRAM available = 16384.000 MB.
DRAM currently available =  198.031 MB.
Maximum ngspice program size =   16.344 MB.
Current ngspice program size =   16.344 MB.

