
Note: No compatibility mode selected!


Circuit: GF180MCU library cell oai21_1 A1_to_ZN__A2=0,B=1

Doing analysis at TEMP = 38.247663 and TNOM = 27.000000

Using SPARSE 1.3 as Direct Linear Solver

Initial Transient Solution
--------------------------

Node                                   Voltage
----                                   -------
vdd                                    1.85425
a1                                           0
a2                                           0
b                                      1.85425
zn                                     1.85425
xu1.net_0                          2.20676e-08
xu1.net_1                              1.85425
vfix_b#branch                                0
vfix_a2#branch                               0
vin#branch                                   0
vdd#branch                        -8.90361e-12

 Reference value :  6.89900e-08
 Reference value :  1.74687e-07
 Reference value :  2.81867e-07
No. of Data Rows : 68030

  Measurements for Transient Analysis

tphl                =  1.77260e-09 targ=  2.83563e-08 trig=  2.65837e-08
tplh                =  3.58965e-09 targ=  1.05341e-07 trig=  1.01751e-07
i_vdd_avg           =  -6.65801e-07 from=  1.00000e-08 to=  3.30002e-07
power_avg_uw        =  1.23456e+00


Total analysis time (seconds) = 0.879321

Total elapsed time (seconds) = 0.947 

Total DRAM available = 16384.000 MB.
DRAM currently available =  141.000 MB.
Maximum ngspice program size =   18.328 MB.
Current ngspice program size =   18.328 MB.

