
Note: No compatibility mode selected!


Circuit: GF180MCU library cell mux2_4 I0_to_Z__I1=0,S=0

Doing analysis at TEMP = 82.180784 and TNOM = 27.000000

Using SPARSE 1.3 as Direct Linear Solver

Initial Transient Solution
--------------------------

Node                                   Voltage
----                                   -------
vdd                                    1.75259
i0                                           0
i1                                           0
s                                            0
xu1.int04                              1.75258
z                                  1.18013e-08
xu1.net_1                            0.0491397
xu1.net_3                              1.30424
xu1.sel1_n                             1.75259
xu1.net_0                              1.75259
xu1.net_2                              1.75259
vfix_s#branch                                0
vfix_i1#branch                               0
vin#branch                                   0
vdd#branch                        -8.12336e-11

 Reference value :  2.67329e-08
 Reference value :  6.69879e-08
 Reference value :  1.05328e-07
 Reference value :  1.44628e-07
 Reference value :  1.82678e-07
 Reference value :  2.23513e-07
 Reference value :  2.62478e-07
 Reference value :  3.04453e-07
No. of Data Rows : 68032

  Measurements for Transient Analysis

tplh                =  1.47453e-09 targ=  2.59797e-08 trig=  2.45052e-08
tphl                =  1.72910e-09 targ=  9.72447e-08 trig=  9.55156e-08
i_vdd_avg           =  -1.64660e-06 from=  1.00000e-08 to=  3.30003e-07
power_avg_uw        =  2.88581e+00


Total analysis time (seconds) = 2.25993

Total elapsed time (seconds) = 2.338 

Total DRAM available = 16384.000 MB.
DRAM currently available =  157.500 MB.
Maximum ngspice program size =   17.062 MB.
Current ngspice program size =   17.062 MB.

