
Note: No compatibility mode selected!


Circuit: GF180MCU library cell mux2_4 I0_to_Z__I1=0,S=0

Doing analysis at TEMP = 101.895860 and TNOM = 27.000000

Using SPARSE 1.3 as Direct Linear Solver

Initial Transient Solution
--------------------------

Node                                   Voltage
----                                   -------
vdd                                    1.73935
i0                                           0
i1                                           0
s                                            0
xu1.int04                              1.73935
z                                  1.86265e-08
xu1.net_1                            0.0506503
xu1.net_3                              1.29316
xu1.sel1_n                             1.73935
xu1.net_0                              1.73935
xu1.net_2                              1.73935
vfix_s#branch                                0
vfix_i1#branch                               0
vin#branch                                   0
vdd#branch                        -1.88196e-10

 Reference value :  2.75238e-08
 Reference value :  6.81988e-08
 Reference value :  1.05240e-07
 Reference value :  1.44090e-07
 Reference value :  1.77650e-07
 Reference value :  2.12064e-07
 Reference value :  2.50224e-07
 Reference value :  2.91600e-07
 Reference value :  3.32010e-07
No. of Data Rows : 68030

  Measurements for Transient Analysis

tplh                =  2.18345e-09 targ=  2.76966e-08 trig=  2.55132e-08
tphl                =  2.38646e-09 targ=  1.00926e-07 trig=  9.85395e-08
i_vdd_avg           =  -2.50772e-06 from=  1.00000e-08 to=  3.30000e-07
power_avg_uw        =  4.36181e+00


Total analysis time (seconds) = 2.53648

Total elapsed time (seconds) = 2.607 

Total DRAM available = 16384.000 MB.
DRAM currently available =  188.656 MB.
Maximum ngspice program size =   17.812 MB.
Current ngspice program size =   17.812 MB.

