
Note: No compatibility mode selected!


Circuit: GF180MCU library cell xor2_4 A1_to_Z__A2=0

Doing analysis at TEMP = 81.121610 and TNOM = 27.000000

Using SPARSE 1.3 as Direct Linear Solver

Initial Transient Solution
--------------------------

Node                                   Voltage
----                                   -------
vdd                                    1.91983
a1                                           0
a2                                           0
xu1.net_2                            0.0531486
xu1.i                                  1.91983
xu1.net_0                          3.03269e-07
xu1.z_neg                              1.91983
z                                  1.14767e-08
xu1.net_1                              1.91983
vfix_a2#branch                               0
vin#branch                                   0
vdd#branch                         -9.6942e-11

 Reference value :  2.67925e-08
 Reference value :  6.85416e-08
 Reference value :  1.07742e-07
 Reference value :  1.46361e-07
 Reference value :  1.87653e-07
 Reference value :  2.25422e-07
 Reference value :  2.65117e-07
 Reference value :  3.06166e-07
No. of Data Rows : 68032

  Measurements for Transient Analysis

tplh                =  1.45410e-09 targ=  3.04537e-08 trig=  2.89996e-08
tphl                =  3.24359e-09 targ=  1.12242e-07 trig=  1.08999e-07
i_vdd_avg           =  -1.96051e-06 from=  1.00000e-08 to=  3.30001e-07
power_avg_uw        =  3.76384e+00


Total analysis time (seconds) = 2.26086

Total elapsed time (seconds) = 2.343 

Total DRAM available = 16384.000 MB.
DRAM currently available =  145.797 MB.
Maximum ngspice program size =   17.234 MB.
Current ngspice program size =   17.234 MB.

