
Note: No compatibility mode selected!


Circuit: GF180MCU library cell nand3_4 A1_to_ZN__A2=1,A3=1

Doing analysis at TEMP = 3.573694 and TNOM = 27.000000

Using SPARSE 1.3 as Direct Linear Solver

Initial Transient Solution
--------------------------

Node                                   Voltage
----                                   -------
vdd                                    1.80868
a1                                           0
a2                                     1.80868
a3                                     1.80868
xu1.net_1_3                        7.39751e-10
xu1.net_0                           1.4795e-09
xu1.net_1_2                        7.39751e-10
xu1.net_1_1                        7.39751e-10
xu1.net_1_0                        7.39751e-10
xu1.net_0_0                         1.4795e-09
zn                                     1.80868
vfix_a3#branch                               0
vfix_a2#branch                               0
vin#branch                                   0
vdd#branch                        -8.01868e-12

 Reference value :  1.88064e-08
 Reference value :  4.74854e-08
 Reference value :  7.86154e-08
 Reference value :  1.06155e-07
 Reference value :  1.37853e-07
 Reference value :  1.69083e-07
 Reference value :  2.08800e-07
 Reference value :  2.50685e-07
 Reference value :  2.94778e-07
No. of Data Rows : 68034

  Measurements for Transient Analysis

tphl                =  1.52347e-09 targ=  3.14174e-08 trig=  2.98939e-08
tplh                =  3.18108e-09 targ=  1.14863e-07 trig=  1.11682e-07
i_vdd_avg           =  -1.39938e-06 from=  1.00000e-08 to=  3.30003e-07
power_avg_uw        =  2.53103e+00


Total analysis time (seconds) = 2.50553

Total elapsed time (seconds) = 2.594 

Total DRAM available = 16384.000 MB.
DRAM currently available =  247.625 MB.
Maximum ngspice program size =   18.734 MB.
Current ngspice program size =   18.734 MB.

