
Note: No compatibility mode selected!


Circuit: GF180MCU library cell nor2_4 A1_to_ZN__A2=0

Doing analysis at TEMP = 124.641340 and TNOM = 27.000000

Using SPARSE 1.3 as Direct Linear Solver

Initial Transient Solution
--------------------------

Node                                   Voltage
----                                   -------
vdd                                    1.84286
a1                                           0
a2                                           0
zn                                     1.84284
xu1.net_0_0                            1.84285
xu1.net_0_1                            1.84285
xu1.net_0_2                            1.84285
xu1.net_0_3                            1.84285
vfix_a2#branch                               0
vin#branch                                   0
vdd#branch                        -1.79822e-09

 Reference value :  2.79375e-08
 Reference value :  7.26213e-08
 Reference value :  1.15975e-07
 Reference value :  1.59065e-07
 Reference value :  2.02056e-07
 Reference value :  2.41961e-07
 Reference value :  2.86645e-07
 Reference value :  3.32515e-07
No. of Data Rows : 68032

  Measurements for Transient Analysis

tphl                =  3.09571e-10 targ=  2.73940e-08 trig=  2.70844e-08
tplh                =  1.63876e-09 targ=  1.04892e-07 trig=  1.03253e-07
i_vdd_avg           =  -7.17122e-07 from=  1.00000e-08 to=  3.30000e-07
power_avg_uw        =  1.32155e+00


Total analysis time (seconds) = 2.11405

Total elapsed time (seconds) = 2.201 

Total DRAM available = 16384.000 MB.
DRAM currently available =  168.047 MB.
Maximum ngspice program size =   16.969 MB.
Current ngspice program size =   16.969 MB.

