
Note: No compatibility mode selected!


Circuit: GF180MCU library cell inv_1 I_to_ZN

Doing analysis at TEMP = 74.323014 and TNOM = 27.000000

Using SPARSE 1.3 as Direct Linear Solver

Initial Transient Solution
--------------------------

Node                                   Voltage
----                                   -------
vdd                                    1.82596
i                                            0
zn                                     1.82596
vin#branch                                   0
vdd#branch                        -2.39679e-11

 Reference value :  1.49919e-07
No. of Data Rows : 68034

  Measurements for Transient Analysis

tphl                =  2.49113e-10 targ=  2.48257e-08 trig=  2.45766e-08
tplh                =  4.97647e-10 targ=  9.62275e-08 trig=  9.57299e-08
i_vdd_avg           =  -1.10302e-07 from=  1.00000e-08 to=  3.30004e-07
power_avg_uw        =  2.01407e-01


Total analysis time (seconds) = 0.435334

Total elapsed time (seconds) = 0.511 

Total DRAM available = 16384.000 MB.
DRAM currently available =  190.562 MB.
Maximum ngspice program size =   16.969 MB.
Current ngspice program size =   16.969 MB.

