
Note: No compatibility mode selected!


Circuit: GF180MCU library cell mux2_1 I0_to_Z__I1=0,S=0

Doing analysis at TEMP = 34.064139 and TNOM = 27.000000

Using SPARSE 1.3 as Direct Linear Solver

Initial Transient Solution
--------------------------

Node                                   Voltage
----                                   -------
vdd                                    1.68406
i0                                           0
i1                                           0
s                                            0
xu1.int04                              1.68406
z                                  8.46854e-09
xu1.net_1                             0.044375
xu1.net_3                              1.26727
xu1.sel1_n                             1.68406
xu1.net_0                              1.68406
xu1.net_2                              1.68406
vfix_s#branch                                0
vfix_i1#branch                               0
vin#branch                                   0
vdd#branch                        -2.05681e-11

 Reference value :  4.36499e-08
 Reference value :  1.05127e-07
 Reference value :  1.72097e-07
 Reference value :  2.36140e-07
 Reference value :  2.89007e-07
No. of Data Rows : 68030

  Measurements for Transient Analysis

tplh                =  6.89636e-10 targ=  2.47958e-08 trig=  2.41062e-08
tphl                =  9.24342e-10 targ=  9.52429e-08 trig=  9.43186e-08
i_vdd_avg           =  -1.97785e-07 from=  1.00000e-08 to=  3.30002e-07
power_avg_uw        =  3.33082e-01


Total analysis time (seconds) = 1.50829

Total elapsed time (seconds) = 1.586 

Total DRAM available = 16384.000 MB.
DRAM currently available =  246.078 MB.
Maximum ngspice program size =   19.031 MB.
Current ngspice program size =   19.031 MB.

