
Note: No compatibility mode selected!


Circuit: GF180MCU library cell xor2_4 A1_to_Z__A2=0

Doing analysis at TEMP = -3.214978 and TNOM = 27.000000

Using SPARSE 1.3 as Direct Linear Solver

Initial Transient Solution
--------------------------

Node                                   Voltage
----                                   -------
vdd                                    1.63608
a1                                           0
a2                                           0
xu1.net_2                            0.0274373
xu1.i                                  1.63608
xu1.net_0                          8.28301e-10
xu1.z_neg                              1.63608
z                                  7.63647e-09
xu1.net_1                              1.63608
vfix_a2#branch                               0
vin#branch                                   0
vdd#branch                        -1.21978e-11

 Reference value :  2.66925e-08
 Reference value :  6.59507e-08
 Reference value :  1.04039e-07
 Reference value :  1.42504e-07
 Reference value :  1.82409e-07
 Reference value :  2.22941e-07
 Reference value :  2.66899e-07
 Reference value :  3.08499e-07
No. of Data Rows : 68034

  Measurements for Transient Analysis

tplh                =  1.94729e-09 targ=  2.77489e-08 trig=  2.58016e-08
tphl                =  2.44979e-09 targ=  1.01855e-07 trig=  9.94048e-08
i_vdd_avg           =  -1.73552e-06 from=  1.00000e-08 to=  3.30004e-07
power_avg_uw        =  2.83944e+00


Total analysis time (seconds) = 2.26296

Total elapsed time (seconds) = 2.343 

Total DRAM available = 16384.000 MB.
DRAM currently available =  151.703 MB.
Maximum ngspice program size =   18.172 MB.
Current ngspice program size =   18.172 MB.

