
Note: No compatibility mode selected!


Circuit: GF180MCU library cell xor2_1 A1_to_Z__A2=0

Doing analysis at TEMP = 91.945555 and TNOM = 27.000000

Using SPARSE 1.3 as Direct Linear Solver

Initial Transient Solution
--------------------------

Node                                   Voltage
----                                   -------
vdd                                    1.81291
a1                                           0
a2                                           0
xu1.i                                  1.81289
z                                  4.13416e-08
xu1.net_0                          2.06093e-08
xu1.net_2                               1.8129
xu1.net_1                             0.538771
vfix_a2#branch                               0
vin#branch                                   0
vdd#branch                        -2.64369e-10

 Reference value :  4.56117e-08
 Reference value :  1.20831e-07
 Reference value :  1.96777e-07
 Reference value :  2.59751e-07
 Reference value :  3.24851e-07
No. of Data Rows : 68032

  Measurements for Transient Analysis

tplh                =  9.32055e-09 targ=  3.39377e-08 trig=  2.46171e-08
tphl                =  2.89430e-09 targ=  9.87456e-08 trig=  9.58513e-08
i_vdd_avg           =  -2.21431e-06 from=  1.00000e-08 to=  3.30001e-07
power_avg_uw        =  4.01434e+00


Total analysis time (seconds) = 1.34049

Total elapsed time (seconds) = 1.406 

Total DRAM available = 16384.000 MB.
DRAM currently available =  211.719 MB.
Maximum ngspice program size =   16.438 MB.
Current ngspice program size =   16.438 MB.

