
Note: No compatibility mode selected!


Circuit: GF180MCU library cell aoi21_1 A1_to_ZN__A2=1,B=0

Doing analysis at TEMP = 123.120730 and TNOM = 27.000000

Using SPARSE 1.3 as Direct Linear Solver

Initial Transient Solution
--------------------------

Node                                   Voltage
----                                   -------
vdd                                    1.64551
a1                                           0
a2                                     1.64551
b                                            0
xu1.net_0                          1.19551e-06
zn                                      1.6455
xu1.net_1                               1.6455
vfix_b#branch                                0
vfix_a2#branch                               0
vin#branch                                   0
vdd#branch                        -4.07417e-10

 Reference value :  7.69775e-08
 Reference value :  1.81388e-07
 Reference value :  2.94508e-07
No. of Data Rows : 68032

  Measurements for Transient Analysis

tphl                =  3.32965e-09 targ=  3.16047e-08 trig=  2.82750e-08
tplh                =  6.81899e-09 targ=  1.13644e-07 trig=  1.06825e-07
i_vdd_avg           =  -8.97730e-07 from=  1.00000e-08 to=  3.30003e-07
power_avg_uw        =  1.47722e+00


Total analysis time (seconds) = 0.862415

Total elapsed time (seconds) = 0.927 

Total DRAM available = 16384.000 MB.
DRAM currently available =  211.719 MB.
Maximum ngspice program size =   16.062 MB.
Current ngspice program size =   16.062 MB.

