
Note: No compatibility mode selected!


Circuit: GF180MCU library cell oai21_1 A1_to_ZN__A2=0,B=1

Doing analysis at TEMP = 49.472507 and TNOM = 27.000000

Using SPARSE 1.3 as Direct Linear Solver

Initial Transient Solution
--------------------------

Node                                   Voltage
----                                   -------
vdd                                    1.93779
a1                                           0
a2                                           0
b                                      1.93779
zn                                     1.93779
xu1.net_0                          4.65064e-08
xu1.net_1                              1.93779
vfix_b#branch                                0
vfix_a2#branch                               0
vin#branch                                   0
vdd#branch                        -1.49943e-11

 Reference value :  7.35285e-08
 Reference value :  1.85684e-07
 Reference value :  2.90005e-07
No. of Data Rows : 68032

  Measurements for Transient Analysis

tphl                =  1.29338e-09 targ=  2.55939e-08 trig=  2.43005e-08
tplh                =  3.12142e-09 targ=  9.80230e-08 trig=  9.49015e-08
i_vdd_avg           =  -8.96828e-07 from=  1.00000e-08 to=  3.30005e-07
power_avg_uw        =  1.73787e+00


Total analysis time (seconds) = 0.832169

Total elapsed time (seconds) = 0.899 

Total DRAM available = 16384.000 MB.
DRAM currently available =  188.656 MB.
Maximum ngspice program size =   14.625 MB.
Current ngspice program size =   14.625 MB.

