
Note: No compatibility mode selected!


Circuit: GF180MCU library cell nand2_4 A1_to_ZN__A2=1

Doing analysis at TEMP = 95.127564 and TNOM = 27.000000

Using SPARSE 1.3 as Direct Linear Solver

Initial Transient Solution
--------------------------

Node                                   Voltage
----                                   -------
vdd                                    1.88855
a1                                           0
a2                                     1.88855
xu1.net_0_0                         3.1488e-07
zn                                     1.88855
xu1.net_0_1                         3.1488e-07
xu1.net_0_2                         3.1488e-07
xu1.net_0_3                         3.1488e-07
vfix_a2#branch                               0
vin#branch                                   0
vdd#branch                        -2.68287e-10

 Reference value :  2.70425e-08
 Reference value :  7.26717e-08
 Reference value :  1.20271e-07
 Reference value :  1.64846e-07
 Reference value :  2.09027e-07
 Reference value :  2.54532e-07
 Reference value :  2.99501e-07
No. of Data Rows : 68032

  Measurements for Transient Analysis

tphl                =  6.03408e-10 targ=  2.80730e-08 trig=  2.74696e-08
tplh                =  1.60628e-09 targ=  1.06015e-07 trig=  1.04409e-07
i_vdd_avg           =  -1.02423e-06 from=  1.00000e-08 to=  3.30001e-07
power_avg_uw        =  1.93431e+00


Total analysis time (seconds) = 1.99736

Total elapsed time (seconds) = 2.080 

Total DRAM available = 16384.000 MB.
DRAM currently available =  171.078 MB.
Maximum ngspice program size =   16.562 MB.
Current ngspice program size =   16.562 MB.

