
Note: No compatibility mode selected!


Circuit: GF180MCU library cell nand2_1 A1_to_ZN__A2=1

Doing analysis at TEMP = -31.499840 and TNOM = 27.000000

Using SPARSE 1.3 as Direct Linear Solver

Initial Transient Solution
--------------------------

Node                                   Voltage
----                                   -------
vdd                                     1.7187
a1                                           0
a2                                      1.7187
xu1.net_0                          2.23246e-11
zn                                      1.7187
vfix_a2#branch                               0
vin#branch                                   0
vdd#branch                        -1.73458e-12

 Reference value :  9.19646e-08
 Reference value :  2.24990e-07
No. of Data Rows : 68030

  Measurements for Transient Analysis

tphl                =  1.93955e-09 targ=  2.90531e-08 trig=  2.71136e-08
tplh                =  2.99507e-09 targ=  1.06336e-07 trig=  1.03341e-07
i_vdd_avg           =  -5.62919e-07 from=  1.00000e-08 to=  3.30002e-07
power_avg_uw        =  9.67491e-01


Total analysis time (seconds) = 0.68326

Total elapsed time (seconds) = 0.765 

Total DRAM available = 16384.000 MB.
DRAM currently available =  195.703 MB.
Maximum ngspice program size =   18.438 MB.
Current ngspice program size =   18.438 MB.

