
Note: No compatibility mode selected!


Circuit: GF180MCU library cell aoi21_4 A1_to_ZN__A2=1,B=0

Doing analysis at TEMP = 12.136996 and TNOM = 27.000000

Using SPARSE 1.3 as Direct Linear Solver

Initial Transient Solution
--------------------------

Node                                   Voltage
----                                   -------
vdd                                    1.75371
a1                                           0
a2                                     1.75371
b                                            0
xu1.net_0_0                        1.54581e-09
zn                                     1.75371
xu1.net_0_1                        1.54581e-09
xu1.net_0_2                        1.54581e-09
xu1.net_0_3                        1.54581e-09
xu1.net_1                              1.75371
vfix_b#branch                                0
vfix_a2#branch                               0
vin#branch                                   0
vdd#branch                         -1.7333e-11

 Reference value :  2.05914e-08
 Reference value :  5.16672e-08
 Reference value :  8.34472e-08
 Reference value :  1.13747e-07
 Reference value :  1.44607e-07
 Reference value :  1.75372e-07
 Reference value :  2.05007e-07
 Reference value :  2.34342e-07
 Reference value :  2.64497e-07
 Reference value :  2.95557e-07
 Reference value :  3.27927e-07
No. of Data Rows : 68032

  Measurements for Transient Analysis

tphl                =  1.04507e-09 targ=  3.01199e-08 trig=  2.90749e-08
tplh                =  3.22052e-09 targ=  1.12445e-07 trig=  1.09225e-07
i_vdd_avg           =  -1.08848e-06 from=  1.00000e-08 to=  3.30002e-07
power_avg_uw        =  1.90889e+00


Total analysis time (seconds) = 2.96054

Total elapsed time (seconds) = 3.033 

Total DRAM available = 16384.000 MB.
DRAM currently available =  180.500 MB.
Maximum ngspice program size =   17.344 MB.
Current ngspice program size =   17.344 MB.

