
Note: No compatibility mode selected!


Circuit: GF180MCU library cell inv_4 I_to_ZN

Doing analysis at TEMP = 12.082537 and TNOM = 27.000000

Using SPARSE 1.3 as Direct Linear Solver

Initial Transient Solution
--------------------------

Node                                   Voltage
----                                   -------
vdd                                    1.67151
i                                            0
zn                                     1.67151
vin#branch                                   0
vdd#branch                        -8.12255e-12

 Reference value :  5.82972e-08
 Reference value :  1.44577e-07
 Reference value :  2.19627e-07
 Reference value :  2.98962e-07
No. of Data Rows : 68032

  Measurements for Transient Analysis

tphl                =  7.58923e-11 targ=  2.99232e-08 trig=  2.98473e-08
tplh                =  1.93454e-09 targ=  1.13477e-07 trig=  1.11542e-07
i_vdd_avg           =  -4.83093e-07 from=  1.00000e-08 to=  3.30002e-07
power_avg_uw        =  8.07495e-01


Total analysis time (seconds) = 1.1688

Total elapsed time (seconds) = 1.230 

Total DRAM available = 16384.000 MB.
DRAM currently available =  213.203 MB.
Maximum ngspice program size =   13.047 MB.
Current ngspice program size =   12.875 MB.

