
Note: No compatibility mode selected!


Circuit: GF180MCU library cell aoi21_1 A1_to_ZN__A2=1,B=0

Doing analysis at TEMP = 96.987739 and TNOM = 27.000000

Using SPARSE 1.3 as Direct Linear Solver

Initial Transient Solution
--------------------------

Node                                   Voltage
----                                   -------
vdd                                    1.93113
a1                                           0
a2                                     1.93113
b                                            0
xu1.net_0                          3.44057e-07
zn                                     1.93113
xu1.net_1                              1.93113
vfix_b#branch                                0
vfix_a2#branch                               0
vin#branch                                   0
vdd#branch                         -1.5251e-10

 Reference value :  7.55025e-08
 Reference value :  1.77818e-07
 Reference value :  2.88708e-07
No. of Data Rows : 68032

  Measurements for Transient Analysis

tphl                =  3.30374e-09 targ=  3.06787e-08 trig=  2.73750e-08
tplh                =  6.90186e-09 targ=  1.11027e-07 trig=  1.04125e-07
i_vdd_avg           =  -1.54726e-06 from=  1.00000e-08 to=  3.30003e-07
power_avg_uw        =  2.98797e+00


Total analysis time (seconds) = 0.827715

Total elapsed time (seconds) = 0.904 

Total DRAM available = 16384.000 MB.
DRAM currently available =  175.484 MB.
Maximum ngspice program size =   18.047 MB.
Current ngspice program size =   18.047 MB.

