
Note: No compatibility mode selected!


Circuit: GF180MCU library cell oai21_1 A1_to_ZN__A2=0,B=1

Doing analysis at TEMP = 115.634650 and TNOM = 27.000000

Using SPARSE 1.3 as Direct Linear Solver

Initial Transient Solution
--------------------------

Node                                   Voltage
----                                   -------
vdd                                    1.70012
a1                                           0
a2                                           0
b                                      1.70012
zn                                     1.70011
xu1.net_0                          1.70399e-06
xu1.net_1                              1.70012
vfix_b#branch                                0
vfix_a2#branch                               0
vin#branch                                   0
vdd#branch                         -3.0426e-10

 Reference value :  6.64502e-08
 Reference value :  1.65378e-07
 Reference value :  2.69268e-07
No. of Data Rows : 68034

  Measurements for Transient Analysis

tphl                =  4.26690e-09 targ=  3.19907e-08 trig=  2.77238e-08
tplh                =  9.26280e-09 targ=  1.14434e-07 trig=  1.05172e-07
i_vdd_avg           =  -1.51676e-06 from=  1.00000e-08 to=  3.30003e-07
power_avg_uw        =  2.57868e+00


Total analysis time (seconds) = 0.879693

Total elapsed time (seconds) = 0.967 

Total DRAM available = 16384.000 MB.
DRAM currently available =  175.484 MB.
Maximum ngspice program size =   18.078 MB.
Current ngspice program size =   18.078 MB.

