
Note: No compatibility mode selected!


Circuit: GF180MCU library cell inv_1 I_to_ZN

Doing analysis at TEMP = 23.450156 and TNOM = 27.000000

Using SPARSE 1.3 as Direct Linear Solver

Initial Transient Solution
--------------------------

Node                                   Voltage
----                                   -------
vdd                                     1.7488
i                                            0
zn                                      1.7488
vin#branch                                   0
vdd#branch                        -2.62803e-12

 Reference value :  1.54954e-07
No. of Data Rows : 68032

  Measurements for Transient Analysis

tphl                =  3.07692e-09 targ=  3.25399e-08 trig=  2.94629e-08
tplh                =  5.69726e-09 targ=  1.16086e-07 trig=  1.10389e-07
i_vdd_avg           =  -1.33913e-06 from=  1.00000e-08 to=  3.30004e-07
power_avg_uw        =  2.34188e+00


Total analysis time (seconds) = 0.388004

Total elapsed time (seconds) = 0.472 

Total DRAM available = 16384.000 MB.
DRAM currently available =  187.547 MB.
Maximum ngspice program size =   18.109 MB.
Current ngspice program size =   18.109 MB.

