
Note: No compatibility mode selected!


Circuit: GF180MCU library cell xor2_1 A1_to_Z__A2=0

Doing analysis at TEMP = 42.635126 and TNOM = 27.000000

Using SPARSE 1.3 as Direct Linear Solver

Initial Transient Solution
--------------------------

Node                                   Voltage
----                                   -------
vdd                                    1.91741
a1                                           0
a2                                           0
xu1.i                                  1.91741
z                                  3.22307e-08
xu1.net_0                          1.53476e-08
xu1.net_2                              1.91741
xu1.net_1                             0.643289
vfix_a2#branch                               0
vin#branch                                   0
vdd#branch                         -3.2821e-11

 Reference value :  4.62490e-08
 Reference value :  1.12856e-07
 Reference value :  1.75831e-07
 Reference value :  2.41164e-07
 Reference value :  3.05556e-07
No. of Data Rows : 68030

  Measurements for Transient Analysis

tplh                =  1.89775e-09 targ=  3.05510e-08 trig=  2.86533e-08
tphl                =  2.57572e-09 targ=  1.10536e-07 trig=  1.07960e-07
i_vdd_avg           =  -7.31963e-07 from=  1.00000e-08 to=  3.30001e-07
power_avg_uw        =  1.40348e+00


Total analysis time (seconds) = 1.41214

Total elapsed time (seconds) = 1.482 

Total DRAM available = 16384.000 MB.
DRAM currently available =  190.562 MB.
Maximum ngspice program size =   15.547 MB.
Current ngspice program size =   15.547 MB.

