
Note: No compatibility mode selected!


Circuit: GF180MCU library cell mux2_1 I0_to_Z__I1=0,S=0

Doing analysis at TEMP = -25.048655 and TNOM = 27.000000

Using SPARSE 1.3 as Direct Linear Solver

Initial Transient Solution
--------------------------

Node                                   Voltage
----                                   -------
vdd                                    1.66325
i0                                           0
i1                                           0
s                                            0
xu1.int04                              1.66325
z                                  7.12627e-09
xu1.net_1                            0.0110065
xu1.net_3                              1.17996
xu1.sel1_n                             1.66325
xu1.net_0                              1.66325
xu1.net_2                              1.66325
vfix_s#branch                                0
vfix_i1#branch                               0
vin#branch                                   0
vdd#branch                         -9.2971e-12

 Reference value :  3.87096e-08
 Reference value :  9.74996e-08
 Reference value :  1.57532e-07
 Reference value :  2.15660e-07
 Reference value :  2.72242e-07
 Reference value :  3.29997e-07
No. of Data Rows : 68030

  Measurements for Transient Analysis

tplh                =  3.07041e-09 targ=  2.82765e-08 trig=  2.52061e-08
tphl                =  2.31592e-09 targ=  9.99341e-08 trig=  9.76182e-08
i_vdd_avg           =  -1.18987e-06 from=  1.00000e-08 to=  3.30002e-07
power_avg_uw        =  1.97906e+00


Total analysis time (seconds) = 1.61647

Total elapsed time (seconds) = 1.693 

Total DRAM available = 16384.000 MB.
DRAM currently available =  151.703 MB.
Maximum ngspice program size =   19.094 MB.
Current ngspice program size =   19.094 MB.

