
Note: No compatibility mode selected!


Circuit: GF180MCU library cell oai21_1 A1_to_ZN__A2=0,B=1

Doing analysis at TEMP = -15.038998 and TNOM = 27.000000

Using SPARSE 1.3 as Direct Linear Solver

Initial Transient Solution
--------------------------

Node                                   Voltage
----                                   -------
vdd                                    1.66525
a1                                           0
a2                                           0
b                                      1.66525
zn                                     1.66525
xu1.net_0                          2.63867e-10
xu1.net_1                              1.66525
vfix_b#branch                                0
vfix_a2#branch                               0
vin#branch                                   0
vdd#branch                        -3.41404e-12

 Reference value :  6.97611e-08
 Reference value :  1.69060e-07
 Reference value :  2.70840e-07
No. of Data Rows : 68034

  Measurements for Transient Analysis

tphl                =  2.69363e-09 targ=  2.86029e-08 trig=  2.59093e-08
tplh                =  6.18854e-09 targ=  1.05916e-07 trig=  9.97279e-08
i_vdd_avg           =  -1.13222e-06 from=  1.00000e-08 to=  3.30005e-07
power_avg_uw        =  1.88543e+00


Total analysis time (seconds) = 0.892724

Total elapsed time (seconds) = 0.972 

Total DRAM available = 16384.000 MB.
DRAM currently available =  170.797 MB.
Maximum ngspice program size =   17.859 MB.
Current ngspice program size =   17.859 MB.

