
Note: No compatibility mode selected!


Circuit: GF180MCU library cell inv_4 I_to_ZN

Doing analysis at TEMP = -14.798446 and TNOM = 27.000000

Using SPARSE 1.3 as Direct Linear Solver

Initial Transient Solution
--------------------------

Node                                   Voltage
----                                   -------
vdd                                    1.71589
i                                            0
zn                                     1.71589
vin#branch                                   0
vdd#branch                        -7.03722e-12

 Reference value :  5.43979e-08
 Reference value :  1.44573e-07
 Reference value :  2.26968e-07
 Reference value :  3.08048e-07
No. of Data Rows : 68032

  Measurements for Transient Analysis

tphl                =  5.07324e-10 targ=  2.45725e-08 trig=  2.40652e-08
tplh                =  1.15167e-09 targ=  9.53473e-08 trig=  9.41957e-08
i_vdd_avg           =  -2.14810e-06 from=  1.00000e-08 to=  3.30003e-07
power_avg_uw        =  3.68591e+00


Total analysis time (seconds) = 1.09623

Total elapsed time (seconds) = 1.167 

Total DRAM available = 16384.000 MB.
DRAM currently available =  231.672 MB.
Maximum ngspice program size =   17.562 MB.
Current ngspice program size =   17.562 MB.

