
Note: No compatibility mode selected!


Circuit: GF180MCU library cell oai21_4 A1_to_ZN__A2=0,B=1

Doing analysis at TEMP = 91.616444 and TNOM = 27.000000

Using SPARSE 1.3 as Direct Linear Solver

Initial Transient Solution
--------------------------

Node                                   Voltage
----                                   -------
vdd                                    1.65546
a1                                           0
a2                                           0
b                                      1.65546
zn                                     1.65546
xu1.net_0                          5.44745e-07
xu1.net_1_0                            1.65546
xu1.net_1_1                            1.65546
xu1.net_1_2                            1.65546
xu1.net_1_3                            1.65546
vfix_b#branch                                0
vfix_a2#branch                               0
vin#branch                                   0
vdd#branch                        -4.07368e-10

 Reference value :  1.92514e-08
 Reference value :  4.75094e-08
 Reference value :  7.59194e-08
 Reference value :  1.07916e-07
 Reference value :  1.39021e-07
 Reference value :  1.68946e-07
 Reference value :  2.00329e-07
 Reference value :  2.30424e-07
 Reference value :  2.61619e-07
 Reference value :  2.93031e-07
 Reference value :  3.25026e-07
No. of Data Rows : 68030

  Measurements for Transient Analysis

tphl                =  1.41919e-09 targ=  2.87376e-08 trig=  2.73184e-08
tplh                =  3.38561e-09 targ=  1.07341e-07 trig=  1.03955e-07
i_vdd_avg           =  -1.28628e-06 from=  1.00000e-08 to=  3.30001e-07
power_avg_uw        =  2.12939e+00


Total analysis time (seconds) = 3.01066

Total elapsed time (seconds) = 3.096 

Total DRAM available = 16384.000 MB.
DRAM currently available =  151.797 MB.
Maximum ngspice program size =   17.844 MB.
Current ngspice program size =   17.844 MB.

