
Note: No compatibility mode selected!


Circuit: GF180MCU library cell oai21_4 A1_to_ZN__A2=0,B=1

Doing analysis at TEMP = 1.099229 and TNOM = 27.000000

Using SPARSE 1.3 as Direct Linear Solver

Initial Transient Solution
--------------------------

Node                                   Voltage
----                                   -------
vdd                                    1.80694
a1                                           0
a2                                           0
b                                      1.80694
zn                                     1.80694
xu1.net_0                          1.18885e-09
xu1.net_1_0                            1.80694
xu1.net_1_1                            1.80694
xu1.net_1_2                            1.80694
xu1.net_1_3                            1.80694
vfix_b#branch                                0
vfix_a2#branch                               0
vin#branch                                   0
vdd#branch                        -1.57385e-11

 Reference value :  2.13564e-08
 Reference value :  5.20566e-08
 Reference value :  8.45866e-08
 Reference value :  1.19071e-07
 Reference value :  1.59891e-07
 Reference value :  2.03252e-07
 Reference value :  2.49497e-07
 Reference value :  2.99786e-07
No. of Data Rows : 68032

  Measurements for Transient Analysis

tphl                =  9.06792e-10 targ=  2.72938e-08 trig=  2.63870e-08
tplh                =  2.21427e-09 targ=  1.03375e-07 trig=  1.01161e-07
i_vdd_avg           =  -1.05470e-06 from=  1.00000e-08 to=  3.30001e-07
power_avg_uw        =  1.90578e+00


Total analysis time (seconds) = 2.13789

Total elapsed time (seconds) = 2.214 

Total DRAM available = 16384.000 MB.
DRAM currently available =  262.750 MB.
Maximum ngspice program size =   15.797 MB.
Current ngspice program size =   15.797 MB.

