
Note: No compatibility mode selected!


Circuit: GF180MCU library cell nor2_1 A1_to_ZN__A2=0

Doing analysis at TEMP = 98.354283 and TNOM = 27.000000

Using SPARSE 1.3 as Direct Linear Solver

Initial Transient Solution
--------------------------

Node                                   Voltage
----                                   -------
vdd                                    1.72321
a1                                           0
a2                                           0
zn                                      1.7232
xu1.net_0                              1.72321
vfix_a2#branch                               0
vin#branch                                   0
vdd#branch                        -1.39958e-10

 Reference value :  9.93430e-08
 Reference value :  2.28750e-07
No. of Data Rows : 68034

  Measurements for Transient Analysis

tphl                =  1.52259e-09 targ=  2.64590e-08 trig=  2.49364e-08
tplh                =  4.27361e-09 targ=  1.01083e-07 trig=  9.68091e-08
i_vdd_avg           =  -8.02637e-07 from=  1.00000e-08 to=  3.30003e-07
power_avg_uw        =  1.38311e+00


Total analysis time (seconds) = 0.645983

Total elapsed time (seconds) = 0.723 

Total DRAM available = 16384.000 MB.
DRAM currently available =  170.797 MB.
Maximum ngspice program size =   17.969 MB.
Current ngspice program size =   17.969 MB.

