
Note: No compatibility mode selected!


Circuit: GF180MCU library cell inv_1 I_to_ZN

Doing analysis at TEMP = 46.602679 and TNOM = 27.000000

Using SPARSE 1.3 as Direct Linear Solver

Initial Transient Solution
--------------------------

Node                                   Voltage
----                                   -------
vdd                                    1.95452
i                                            0
zn                                     1.95452
vin#branch                                   0
vdd#branch                        -6.63435e-12

 Reference value :  1.62186e-07
No. of Data Rows : 68030

  Measurements for Transient Analysis

tphl                =  1.92725e-09 targ=  2.95782e-08 trig=  2.76510e-08
tplh                =  3.64025e-09 targ=  1.08593e-07 trig=  1.04953e-07
i_vdd_avg           =  -1.16134e-06 from=  1.00000e-08 to=  3.30001e-07
power_avg_uw        =  2.26986e+00


Total analysis time (seconds) = 0.415173

Total elapsed time (seconds) = 0.490 

Total DRAM available = 16384.000 MB.
DRAM currently available =  198.031 MB.
Maximum ngspice program size =   16.562 MB.
Current ngspice program size =   16.562 MB.

