
Note: No compatibility mode selected!


Circuit: GF180MCU library cell aoi21_4 A1_to_ZN__A2=1,B=0

Doing analysis at TEMP = 24.760354 and TNOM = 27.000000

Using SPARSE 1.3 as Direct Linear Solver

Initial Transient Solution
--------------------------

Node                                   Voltage
----                                   -------
vdd                                    1.97548
a1                                           0
a2                                     1.97548
b                                            0
xu1.net_0_0                        4.09147e-09
zn                                     1.97548
xu1.net_0_1                        4.09147e-09
xu1.net_0_2                        4.09147e-09
xu1.net_0_3                        4.09147e-09
xu1.net_1                              1.97548
vfix_b#branch                                0
vfix_a2#branch                               0
vin#branch                                   0
vdd#branch                        -2.51556e-11

 Reference value :  2.11064e-08
 Reference value :  5.07715e-08
 Reference value :  8.31865e-08
 Reference value :  1.12701e-07
 Reference value :  1.43976e-07
 Reference value :  1.76411e-07
 Reference value :  2.07447e-07
 Reference value :  2.38927e-07
 Reference value :  2.71911e-07
 Reference value :  3.04741e-07
 Reference value :  3.35426e-07
No. of Data Rows : 68032

  Measurements for Transient Analysis

tphl                =  1.39510e-09 targ=  2.74846e-08 trig=  2.60895e-08
tplh                =  2.84152e-09 targ=  1.03110e-07 trig=  1.00269e-07
i_vdd_avg           =  -2.52965e-06 from=  1.00000e-08 to=  3.30001e-07
power_avg_uw        =  4.99727e+00


Total analysis time (seconds) = 2.98329

Total elapsed time (seconds) = 3.055 

Total DRAM available = 16384.000 MB.
DRAM currently available =  211.719 MB.
Maximum ngspice program size =   17.406 MB.
Current ngspice program size =   17.406 MB.

