
Note: No compatibility mode selected!


Circuit: GF180MCU library cell mux2_1 I0_to_Z__I1=0,S=0

Doing analysis at TEMP = 108.589370 and TNOM = 27.000000

Using SPARSE 1.3 as Direct Linear Solver

Initial Transient Solution
--------------------------

Node                                   Voltage
----                                   -------
vdd                                    1.74375
i0                                           0
i1                                           0
s                                            0
xu1.int04                              1.74374
z                                  2.32405e-08
xu1.net_1                            0.0530959
xu1.net_3                               1.3189
xu1.sel1_n                             1.74374
xu1.net_0                              1.74375
xu1.net_2                              1.74374
vfix_s#branch                                0
vfix_i1#branch                               0
vin#branch                                   0
vdd#branch                        -5.07885e-10

 Reference value :  3.93845e-08
 Reference value :  9.51095e-08
 Reference value :  1.48486e-07
 Reference value :  2.03719e-07
 Reference value :  2.61084e-07
 Reference value :  3.16256e-07
No. of Data Rows : 68030

  Measurements for Transient Analysis

tplh                =  1.47598e-09 targ=  2.98170e-08 trig=  2.83410e-08
tphl                =  2.79168e-09 targ=  1.09815e-07 trig=  1.07023e-07
i_vdd_avg           =  -5.98464e-07 from=  1.00000e-08 to=  3.30001e-07
power_avg_uw        =  1.04357e+00


Total analysis time (seconds) = 1.69178

Total elapsed time (seconds) = 1.771 

Total DRAM available = 16384.000 MB.
DRAM currently available =  170.797 MB.
Maximum ngspice program size =   18.203 MB.
Current ngspice program size =   18.203 MB.

