
Note: No compatibility mode selected!


Circuit: GF180MCU library cell nor2_4 A1_to_ZN__A2=0

Doing analysis at TEMP = 12.093916 and TNOM = 27.000000

Using SPARSE 1.3 as Direct Linear Solver

Initial Transient Solution
--------------------------

Node                                   Voltage
----                                   -------
vdd                                    1.64037
a1                                           0
a2                                           0
zn                                     1.64037
xu1.net_0_0                            1.64037
xu1.net_0_1                            1.64037
xu1.net_0_2                            1.64037
xu1.net_0_3                            1.64037
vfix_a2#branch                               0
vin#branch                                   0
vdd#branch                        -1.61258e-11

 Reference value :  2.89975e-08
 Reference value :  7.41050e-08
 Reference value :  1.16647e-07
 Reference value :  1.59292e-07
 Reference value :  2.03210e-07
 Reference value :  2.45660e-07
 Reference value :  2.89092e-07
 Reference value :  3.31752e-07
No. of Data Rows : 68030

  Measurements for Transient Analysis

tphl                =  8.36684e-10 targ=  3.01304e-08 trig=  2.92937e-08
tplh                =  3.01727e-09 targ=  1.12899e-07 trig=  1.09881e-07
i_vdd_avg           =  -6.95020e-07 from=  1.00000e-08 to=  3.30002e-07
power_avg_uw        =  1.14009e+00


Total analysis time (seconds) = 2.14406

Total elapsed time (seconds) = 2.257 

Total DRAM available = 16384.000 MB.
DRAM currently available =  190.562 MB.
Maximum ngspice program size =   18.031 MB.
Current ngspice program size =   18.031 MB.

