
Note: No compatibility mode selected!


Circuit: GF180MCU library cell nand2_4 A1_to_ZN__A2=1

Doing analysis at TEMP = 69.853686 and TNOM = 27.000000

Using SPARSE 1.3 as Direct Linear Solver

Initial Transient Solution
--------------------------

Node                                   Voltage
----                                   -------
vdd                                    1.79927
a1                                           0
a2                                     1.79927
xu1.net_0_0                        8.20208e-08
zn                                     1.79927
xu1.net_0_1                        8.20208e-08
xu1.net_0_2                        8.20208e-08
xu1.net_0_3                        8.20208e-08
vfix_a2#branch                               0
vin#branch                                   0
vdd#branch                        -7.58119e-11

 Reference value :  3.22467e-08
 Reference value :  7.68617e-08
 Reference value :  1.21051e-07
 Reference value :  1.66746e-07
 Reference value :  2.10962e-07
 Reference value :  2.51372e-07
 Reference value :  2.96351e-07
No. of Data Rows : 68032

  Measurements for Transient Analysis

tphl                =  1.25135e-09 targ=  2.69810e-08 trig=  2.57296e-08
tplh                =  1.80849e-09 targ=  1.00997e-07 trig=  9.91888e-08
i_vdd_avg           =  -1.71698e-06 from=  1.00000e-08 to=  3.30001e-07
power_avg_uw        =  3.08931e+00


Total analysis time (seconds) = 2.05033

Total elapsed time (seconds) = 2.135 

Total DRAM available = 16384.000 MB.
DRAM currently available =  198.031 MB.
Maximum ngspice program size =   16.531 MB.
Current ngspice program size =   16.531 MB.

