
Note: No compatibility mode selected!


Circuit: GF180MCU library cell mux2_1 I0_to_Z__I1=0,S=0

Doing analysis at TEMP = -3.553557 and TNOM = 27.000000

Using SPARSE 1.3 as Direct Linear Solver

Initial Transient Solution
--------------------------

Node                                   Voltage
----                                   -------
vdd                                    1.85402
i0                                           0
i1                                           0
s                                            0
xu1.int04                              1.85402
z                                  7.46924e-09
xu1.net_1                            0.0288999
xu1.net_3                              1.36955
xu1.sel1_n                             1.85402
xu1.net_0                              1.85402
xu1.net_2                              1.85402
vfix_s#branch                                0
vfix_i1#branch                               0
vin#branch                                   0
vdd#branch                        -1.11786e-11

 Reference value :  3.88575e-08
 Reference value :  9.76075e-08
 Reference value :  1.53848e-07
 Reference value :  2.13288e-07
 Reference value :  2.68478e-07
 Reference value :  3.27293e-07
No. of Data Rows : 68032

  Measurements for Transient Analysis

tplh                =  2.16677e-09 targ=  2.90368e-08 trig=  2.68700e-08
tphl                =  2.42729e-09 targ=  1.05037e-07 trig=  1.02610e-07
i_vdd_avg           =  -1.12398e-06 from=  1.00000e-08 to=  3.30003e-07
power_avg_uw        =  2.08387e+00


Total analysis time (seconds) = 1.58919

Total elapsed time (seconds) = 1.663 

Total DRAM available = 16384.000 MB.
DRAM currently available =  174.688 MB.
Maximum ngspice program size =   16.031 MB.
Current ngspice program size =   16.031 MB.

