
Note: No compatibility mode selected!


Circuit: GF180MCU library cell aoi21_4 A1_to_ZN__A2=1,B=0

Doing analysis at TEMP = 51.534564 and TNOM = 27.000000

Using SPARSE 1.3 as Direct Linear Solver

Initial Transient Solution
--------------------------

Node                                   Voltage
----                                   -------
vdd                                     1.6534
a1                                           0
a2                                      1.6534
b                                            0
xu1.net_0_0                        2.76254e-08
zn                                      1.6534
xu1.net_0_1                        2.76254e-08
xu1.net_0_2                        2.76254e-08
xu1.net_0_3                        2.76254e-08
xu1.net_1                               1.6534
vfix_b#branch                                0
vfix_a2#branch                               0
vin#branch                                   0
vdd#branch                        -5.98452e-11

 Reference value :  2.12464e-08
 Reference value :  5.19425e-08
 Reference value :  8.31525e-08
 Reference value :  1.12867e-07
 Reference value :  1.42812e-07
 Reference value :  1.72587e-07
 Reference value :  2.06167e-07
 Reference value :  2.35112e-07
 Reference value :  2.65787e-07
 Reference value :  2.96577e-07
 Reference value :  3.28337e-07
No. of Data Rows : 68032

  Measurements for Transient Analysis

tphl                =  1.87750e-09 targ=  3.02825e-08 trig=  2.84050e-08
tplh                =  4.23301e-09 targ=  1.11448e-07 trig=  1.07215e-07
i_vdd_avg           =  -1.64657e-06 from=  1.00000e-08 to=  3.30002e-07
power_avg_uw        =  2.72243e+00


Total analysis time (seconds) = 2.97106

Total elapsed time (seconds) = 3.054 

Total DRAM available = 16384.000 MB.
DRAM currently available =  198.031 MB.
Maximum ngspice program size =   18.516 MB.
Current ngspice program size =   18.516 MB.

