
Note: No compatibility mode selected!


Circuit: GF180MCU library cell nand3_1 A1_to_ZN__A2=1,A3=1

Doing analysis at TEMP = 26.094003 and TNOM = 27.000000

Using SPARSE 1.3 as Direct Linear Solver

Initial Transient Solution
--------------------------

Node                                   Voltage
----                                   -------
vdd                                    1.83287
a1                                           0
a2                                     1.83287
a3                                     1.83287
xu1.net_1                          4.59271e-09
xu1.net_0                          9.18542e-09
zn                                     1.83287
vfix_a3#branch                               0
vfix_a2#branch                               0
vin#branch                                   0
vdd#branch                        -2.94217e-12

 Reference value :  8.01302e-08
 Reference value :  1.80088e-07
 Reference value :  2.86663e-07
No. of Data Rows : 68034

  Measurements for Transient Analysis

tphl                =  4.60745e-09 targ=  3.41538e-08 trig=  2.95464e-08
tplh                =  6.00363e-09 targ=  1.16643e-07 trig=  1.10639e-07
i_vdd_avg           =  -1.38327e-06 from=  1.00000e-08 to=  3.30003e-07
power_avg_uw        =  2.53536e+00


Total analysis time (seconds) = 0.863834

Total elapsed time (seconds) = 0.944 

Total DRAM available = 16384.000 MB.
DRAM currently available =  151.703 MB.
Maximum ngspice program size =   17.922 MB.
Current ngspice program size =   17.922 MB.

