
Note: No compatibility mode selected!


Circuit: GF180MCU library cell nor2_1 A1_to_ZN__A2=0

Doing analysis at TEMP = 47.942763 and TNOM = 27.000000

Using SPARSE 1.3 as Direct Linear Solver

Initial Transient Solution
--------------------------

Node                                   Voltage
----                                   -------
vdd                                    1.83319
a1                                           0
a2                                           0
zn                                     1.83319
xu1.net_0                              1.83319
vfix_a2#branch                               0
vin#branch                                   0
vdd#branch                        -1.34652e-11

 Reference value :  1.07044e-07
 Reference value :  2.54811e-07
No. of Data Rows : 68034

  Measurements for Transient Analysis

tphl                =  2.13087e-09 targ=  2.79075e-08 trig=  2.57766e-08
tplh                =  5.45422e-09 targ=  1.04784e-07 trig=  9.93299e-08
i_vdd_avg           =  -1.21522e-06 from=  1.00000e-08 to=  3.30004e-07
power_avg_uw        =  2.22773e+00


Total analysis time (seconds) = 0.619988

Total elapsed time (seconds) = 0.686 

Total DRAM available = 16384.000 MB.
DRAM currently available =  151.797 MB.
Maximum ngspice program size =   14.203 MB.
Current ngspice program size =   14.203 MB.

