
Note: No compatibility mode selected!


Circuit: GF180MCU library cell mux2_4 I0_to_Z__I1=0,S=0

Doing analysis at TEMP = -2.885954 and TNOM = 27.000000

Using SPARSE 1.3 as Direct Linear Solver

Initial Transient Solution
--------------------------

Node                                   Voltage
----                                   -------
vdd                                    1.92421
i0                                           0
i1                                           0
s                                            0
xu1.int04                              1.92421
z                                   7.4548e-09
xu1.net_1                            0.0169503
xu1.net_3                               1.3739
xu1.sel1_n                             1.92421
xu1.net_0                              1.92421
xu1.net_2                              1.92421
vfix_s#branch                                0
vfix_i1#branch                               0
vin#branch                                   0
vdd#branch                        -1.70148e-11

 Reference value :  3.27975e-08
 Reference value :  7.57572e-08
 Reference value :  1.22157e-07
 Reference value :  1.68432e-07
 Reference value :  2.17552e-07
 Reference value :  2.59602e-07
 Reference value :  2.99842e-07
No. of Data Rows : 68032

  Measurements for Transient Analysis

tplh                =  8.05503e-10 targ=  2.94153e-08 trig=  2.86098e-08
tphl                =  2.19470e-09 targ=  1.10024e-07 trig=  1.07829e-07
i_vdd_avg           =  -5.90583e-07 from=  1.00000e-08 to=  3.30002e-07
power_avg_uw        =  1.13641e+00


Total analysis time (seconds) = 2.03476

Total elapsed time (seconds) = 2.107 

Total DRAM available = 16384.000 MB.
DRAM currently available =  246.078 MB.
Maximum ngspice program size =   18.094 MB.
Current ngspice program size =   18.094 MB.

