
Note: No compatibility mode selected!


Circuit: GF180MCU library cell nand3_4 A1_to_ZN__A2=1,A3=1

Doing analysis at TEMP = 117.727620 and TNOM = 27.000000

Using SPARSE 1.3 as Direct Linear Solver

Initial Transient Solution
--------------------------

Node                                   Voltage
----                                   -------
vdd                                    1.94168
a1                                           0
a2                                     1.94168
a3                                     1.94168
xu1.net_1_3                        9.09504e-07
xu1.net_0                          1.81901e-06
xu1.net_1_2                        9.09504e-07
xu1.net_1_1                        9.09504e-07
xu1.net_1_0                        9.09504e-07
xu1.net_0_0                        1.81901e-06
zn                                     1.94168
vfix_a3#branch                               0
vfix_a2#branch                               0
vin#branch                                   0
vdd#branch                        -7.42588e-10

 Reference value :  2.34414e-08
 Reference value :  5.27788e-08
 Reference value :  8.64788e-08
 Reference value :  1.14065e-07
 Reference value :  1.44640e-07
 Reference value :  1.77525e-07
 Reference value :  2.09939e-07
 Reference value :  2.40154e-07
 Reference value :  2.68895e-07
 Reference value :  3.02025e-07
 Reference value :  3.35675e-07
No. of Data Rows : 68030

  Measurements for Transient Analysis

tphl                =  2.14262e-09 targ=  2.88358e-08 trig=  2.66932e-08
tplh                =  2.72670e-09 targ=  1.04806e-07 trig=  1.02079e-07
i_vdd_avg           =  -2.75515e-06 from=  1.00000e-08 to=  3.30000e-07
power_avg_uw        =  5.34963e+00


Total analysis time (seconds) = 2.97567

Total elapsed time (seconds) = 3.046 

Total DRAM available = 16384.000 MB.
DRAM currently available =  211.719 MB.
Maximum ngspice program size =   18.078 MB.
Current ngspice program size =   18.078 MB.

