
Note: No compatibility mode selected!


Circuit: GF180MCU library cell nand3_4 A1_to_ZN__A2=1,A3=1

Doing analysis at TEMP = 65.236513 and TNOM = 27.000000

Using SPARSE 1.3 as Direct Linear Solver

Initial Transient Solution
--------------------------

Node                                   Voltage
----                                   -------
vdd                                    1.65734
a1                                           0
a2                                     1.65734
a3                                     1.65734
xu1.net_1_3                        6.41039e-08
xu1.net_0                          1.28208e-07
xu1.net_1_2                        6.41039e-08
xu1.net_1_1                        6.41039e-08
xu1.net_1_0                        6.41039e-08
xu1.net_0_0                        1.28208e-07
zn                                     1.65734
vfix_a3#branch                               0
vfix_a2#branch                               0
vin#branch                                   0
vdd#branch                        -5.60785e-11

 Reference value :  1.96514e-08
 Reference value :  5.00759e-08
 Reference value :  8.00659e-08
 Reference value :  1.08326e-07
 Reference value :  1.38904e-07
 Reference value :  1.67409e-07
 Reference value :  1.98111e-07
 Reference value :  2.29116e-07
 Reference value :  2.58136e-07
 Reference value :  2.87274e-07
 Reference value :  3.17274e-07
No. of Data Rows : 68034

  Measurements for Transient Analysis

tphl                =  4.35925e-10 targ=  2.80401e-08 trig=  2.76042e-08
tplh                =  1.40340e-09 targ=  1.06216e-07 trig=  1.04813e-07
i_vdd_avg           =  -3.82226e-07 from=  1.00000e-08 to=  3.30004e-07
power_avg_uw        =  6.33476e-01


Total analysis time (seconds) = 3.16639

Total elapsed time (seconds) = 3.250 

Total DRAM available = 16384.000 MB.
DRAM currently available =  190.562 MB.
Maximum ngspice program size =   17.188 MB.
Current ngspice program size =   17.188 MB.

