
Note: No compatibility mode selected!


Circuit: GF180MCU library cell xor2_4 A1_to_Z__A2=0

Doing analysis at TEMP = 121.270160 and TNOM = 27.000000

Using SPARSE 1.3 as Direct Linear Solver

Initial Transient Solution
--------------------------

Node                                   Voltage
----                                   -------
vdd                                    1.75584
a1                                           0
a2                                           0
xu1.net_2                            0.0542612
xu1.i                                  1.75583
xu1.net_0                          2.16867e-06
xu1.z_neg                              1.75582
z                                  3.80771e-08
xu1.net_1                              1.75583
vfix_a2#branch                               0
vin#branch                                   0
vdd#branch                        -5.11846e-10

 Reference value :  2.60425e-08
 Reference value :  6.25006e-08
 Reference value :  1.03259e-07
 Reference value :  1.43284e-07
 Reference value :  1.84018e-07
 Reference value :  2.22611e-07
 Reference value :  2.63759e-07
 Reference value :  3.03674e-07
 Reference value :  3.39604e-07
No. of Data Rows : 68034

  Measurements for Transient Analysis

tplh                =  2.11799e-09 targ=  2.84045e-08 trig=  2.62865e-08
tphl                =  2.76528e-09 targ=  1.03625e-07 trig=  1.00860e-07
i_vdd_avg           =  -2.32455e-06 from=  1.00000e-08 to=  3.30004e-07
power_avg_uw        =  4.08153e+00


Total analysis time (seconds) = 2.34036

Total elapsed time (seconds) = 2.428 

Total DRAM available = 16384.000 MB.
DRAM currently available =  147.000 MB.
Maximum ngspice program size =   17.547 MB.
Current ngspice program size =   17.547 MB.

