
Note: No compatibility mode selected!


Circuit: GF180MCU library cell nand3_1 A1_to_ZN__A2=1,A3=1

Doing analysis at TEMP = 102.340600 and TNOM = 27.000000

Using SPARSE 1.3 as Direct Linear Solver

Initial Transient Solution
--------------------------

Node                                   Voltage
----                                   -------
vdd                                    1.77117
a1                                           0
a2                                     1.77117
a3                                     1.77117
xu1.net_1                          4.54668e-07
xu1.net_0                          9.09337e-07
zn                                     1.77117
vfix_a3#branch                               0
vfix_a2#branch                               0
vin#branch                                   0
vdd#branch                         -8.8231e-11

 Reference value :  7.39464e-08
 Reference value :  1.78680e-07
 Reference value :  2.87300e-07
No. of Data Rows : 68032

  Measurements for Transient Analysis

tphl                =  3.27476e-09 targ=  2.94167e-08 trig=  2.61420e-08
tplh                =  3.81801e-09 targ=  1.04244e-07 trig=  1.00426e-07
i_vdd_avg           =  -1.03061e-06 from=  1.00000e-08 to=  3.30000e-07
power_avg_uw        =  1.82539e+00


Total analysis time (seconds) = 0.854722

Total elapsed time (seconds) = 0.932 

Total DRAM available = 16384.000 MB.
DRAM currently available =  174.688 MB.
Maximum ngspice program size =   18.109 MB.
Current ngspice program size =   18.109 MB.

