
Note: No compatibility mode selected!


Circuit: INV seed characterization sample 4322028

Doing analysis at TEMP = 63.688300 and TNOM = 27.000000

Using SPARSE 1.3 as Direct Linear Solver

Initial Transient Solution
--------------------------

Node                                   Voltage
----                                   -------
vdd                                    1.92986
in                                           0
out                                    1.92986
vin#branch                                   0
vdd#branch                        -7.64657e-12

 Reference value :  6.84764e-08
No. of Data Rows : 60044

  Measurements for Transient Analysis

tphl                =  3.12458e-10 targ=  2.40432e-09 trig=  2.09186e-09
tplh                =  5.10720e-10 targ=  2.27863e-08 trig=  2.22756e-08
i_vdd_avg           =  -5.61734e-06 from=  5.00000e-09 to=  1.10000e-07
power_avg_uw        =  1.08407e+01


Total analysis time (seconds) = 0.308362

Total elapsed time (seconds) = 0.380 

Total DRAM available = 16384.000 MB.
DRAM currently available =  143.078 MB.
Maximum ngspice program size =   13.203 MB.
Current ngspice program size =   13.203 MB.

