
Note: No compatibility mode selected!


Circuit: INV seed characterization sample 4322012

Doing analysis at TEMP = 45.812800 and TNOM = 27.000000

Using SPARSE 1.3 as Direct Linear Solver

Initial Transient Solution
--------------------------

Node                                   Voltage
----                                   -------
vdd                                    1.90238
in                                           0
out                                    1.90238
vin#branch                                   0
vdd#branch                        -3.48658e-12

 Reference value :  6.58735e-08
No. of Data Rows : 60047

  Measurements for Transient Analysis

tphl                =  1.53524e-10 targ=  2.40116e-09 trig=  2.24764e-09
tplh                =  2.13463e-10 targ=  2.29564e-08 trig=  2.27429e-08
i_vdd_avg           =  -1.21763e-06 from=  5.00000e-09 to=  1.10002e-07
power_avg_uw        =  2.31640e+00


Total analysis time (seconds) = 0.31338

Total elapsed time (seconds) = 0.390 

Total DRAM available = 16384.000 MB.
DRAM currently available =  165.422 MB.
Maximum ngspice program size =   12.562 MB.
Current ngspice program size =   11.594 MB.

