
Note: No compatibility mode selected!


Circuit: NOR2 seed characterization sample 4322045

Doing analysis at TEMP = 20.500500 and TNOM = 27.000000

Using SPARSE 1.3 as Direct Linear Solver

Initial Transient Solution
--------------------------

Node                                   Voltage
----                                   -------
vdd                                    1.89584
in                                           0
out                                    1.89584
pmid                                   1.89584
vin#branch                                   0
vdd#branch                        -4.34999e-12

 Reference value :  3.87471e-08
 Reference value :  9.28580e-08
No. of Data Rows : 60047

  Measurements for Transient Analysis

tphl                =  1.48706e-10 targ=  2.35722e-09 trig=  2.20852e-09
tplh                =  4.14849e-10 targ=  2.30404e-08 trig=  2.26256e-08
i_vdd_avg           =  -2.95295e-06 from=  5.00000e-09 to=  1.10001e-07
power_avg_uw        =  5.59833e+00


Total analysis time (seconds) = 0.526539

Total elapsed time (seconds) = 0.605 

Total DRAM available = 16384.000 MB.
DRAM currently available =  178.656 MB.
Maximum ngspice program size =   12.562 MB.
Current ngspice program size =   11.750 MB.

