
Note: No compatibility mode selected!


Circuit: INV seed characterization sample 4322029

Doing analysis at TEMP = 54.070200 and TNOM = 27.000000

Using SPARSE 1.3 as Direct Linear Solver

Initial Transient Solution
--------------------------

Node                                   Voltage
----                                   -------
vdd                                    1.72402
in                                           0
out                                    1.72402
vin#branch                                   0
vdd#branch                          -8.908e-12

 Reference value :  7.64129e-08
No. of Data Rows : 60044

  Measurements for Transient Analysis

tphl                =  1.68457e-10 targ=  2.22843e-09 trig=  2.05997e-09
tplh                =  2.01955e-10 targ=  2.23819e-08 trig=  2.21799e-08
i_vdd_avg           =  -5.35928e-06 from=  5.00000e-09 to=  1.10001e-07
power_avg_uw        =  9.23950e+00


Total analysis time (seconds) = 0.283736

Total elapsed time (seconds) = 0.351 

Total DRAM available = 16384.000 MB.
DRAM currently available =   85.469 MB.
Maximum ngspice program size =   12.984 MB.
Current ngspice program size =   11.812 MB.

