
Note: No compatibility mode selected!


Circuit: NOR2 seed characterization sample 4322020

Doing analysis at TEMP = 29.799100 and TNOM = 27.000000

Using SPARSE 1.3 as Direct Linear Solver

Initial Transient Solution
--------------------------

Node                                   Voltage
----                                   -------
vdd                                    1.80341
in                                           0
out                                    1.80341
pmid                                   1.80341
vin#branch                                   0
vdd#branch                        -5.02596e-12

 Reference value :  4.05631e-08
 Reference value :  9.86780e-08
No. of Data Rows : 60047

  Measurements for Transient Analysis

tphl                =  1.71254e-10 targ=  2.30977e-09 trig=  2.13851e-09
tplh                =  4.85971e-10 targ=  2.29015e-08 trig=  2.24155e-08
i_vdd_avg           =  -5.46296e-06 from=  5.00000e-09 to=  1.10001e-07
power_avg_uw        =  9.85195e+00


Total analysis time (seconds) = 0.501862

Total elapsed time (seconds) = 0.581 

Total DRAM available = 16384.000 MB.
DRAM currently available =  167.422 MB.
Maximum ngspice program size =   12.656 MB.
Current ngspice program size =   11.844 MB.

