
Note: No compatibility mode selected!


Circuit: INV seed characterization sample 4322013

Doing analysis at TEMP = 10.128000 and TNOM = 27.000000

Using SPARSE 1.3 as Direct Linear Solver

Initial Transient Solution
--------------------------

Node                                   Voltage
----                                   -------
vdd                                    1.79681
in                                           0
out                                    1.79681
vin#branch                                   0
vdd#branch                        -1.86744e-12

 Reference value :  5.86312e-08
No. of Data Rows : 60047

  Measurements for Transient Analysis

tphl                =  5.32520e-11 targ=  2.05834e-09 trig=  2.00509e-09
tplh                =  6.54753e-11 targ=  2.20807e-08 trig=  2.20153e-08
i_vdd_avg           =  -6.62823e-07 from=  5.00000e-09 to=  1.10001e-07
power_avg_uw        =  1.19097e+00


Total analysis time (seconds) = 0.361111

Total elapsed time (seconds) = 0.439 

Total DRAM available = 16384.000 MB.
DRAM currently available =  157.547 MB.
Maximum ngspice program size =   12.562 MB.
Current ngspice program size =   12.094 MB.

