
Note: No compatibility mode selected!


Circuit: NAND2 seed characterization sample 4322048

Doing analysis at TEMP = 70.738400 and TNOM = 27.000000

Using SPARSE 1.3 as Direct Linear Solver

Initial Transient Solution
--------------------------

Node                                   Voltage
----                                   -------
vdd                                    1.75365
in                                           0
out                                    1.75365
nmid                                 0.0507926
vin#branch                                   0
vdd#branch                        -5.89122e-12

 Reference value :  3.87455e-08
 Reference value :  9.31893e-08
No. of Data Rows : 60044

  Measurements for Transient Analysis

tphl                =  3.09744e-10 targ=  2.49887e-09 trig=  2.18913e-09
tplh                =  1.64273e-10 targ=  2.27317e-08 trig=  2.25674e-08
i_vdd_avg           =  -4.62002e-06 from=  5.00000e-09 to=  1.10002e-07
power_avg_uw        =  8.10189e+00


Total analysis time (seconds) = 0.523675

Total elapsed time (seconds) = 0.603 

Total DRAM available = 16384.000 MB.
DRAM currently available =  178.656 MB.
Maximum ngspice program size =   12.562 MB.
Current ngspice program size =   12.312 MB.

