
Note: No compatibility mode selected!


Circuit: NOR2 seed characterization sample 4322025

Doing analysis at TEMP = 69.009300 and TNOM = 27.000000

Using SPARSE 1.3 as Direct Linear Solver

Initial Transient Solution
--------------------------

Node                                   Voltage
----                                   -------
vdd                                    1.86759
in                                           0
out                                    1.86759
pmid                                   1.86759
vin#branch                                   0
vdd#branch                          -1.867e-11

 Reference value :  4.27144e-08
 Reference value :  1.02222e-07
No. of Data Rows : 60047

  Measurements for Transient Analysis

tphl                =  1.22456e-10 targ=  2.27718e-09 trig=  2.15472e-09
tplh                =  2.88137e-10 targ=  2.27523e-08 trig=  2.24642e-08
i_vdd_avg           =  -2.16066e-06 from=  5.00000e-09 to=  1.10002e-07
power_avg_uw        =  4.03522e+00


Total analysis time (seconds) = 0.492876

Total elapsed time (seconds) = 0.566 

Total DRAM available = 16384.000 MB.
DRAM currently available =   64.516 MB.
Maximum ngspice program size =   12.594 MB.
Current ngspice program size =   12.453 MB.

