
Note: No compatibility mode selected!


Circuit: NAND2 seed characterization sample 4322043

Doing analysis at TEMP = 14.478300 and TNOM = 27.000000

Using SPARSE 1.3 as Direct Linear Solver

Initial Transient Solution
--------------------------

Node                                   Voltage
----                                   -------
vdd                                    1.79477
in                                           0
out                                    1.79477
nmid                                 0.0263818
vin#branch                                   0
vdd#branch                        -1.89721e-12

 Reference value :  4.51315e-08
 Reference value :  1.04260e-07
No. of Data Rows : 60044

  Measurements for Transient Analysis

tphl                =  1.20909e-10 targ=  2.24414e-09 trig=  2.12323e-09
tplh                =  7.45901e-11 targ=  2.24443e-08 trig=  2.23697e-08
i_vdd_avg           =  -9.74274e-07 from=  5.00000e-09 to=  1.10002e-07
power_avg_uw        =  1.74860e+00


Total analysis time (seconds) = 0.493548

Total elapsed time (seconds) = 0.567 

Total DRAM available = 16384.000 MB.
DRAM currently available =  188.859 MB.
Maximum ngspice program size =   12.562 MB.
Current ngspice program size =   11.812 MB.

