
Note: No compatibility mode selected!


Circuit: XOR2 seed characterization sample 4322040

Doing analysis at TEMP = 43.100500 and TNOM = 27.000000

Using SPARSE 1.3 as Direct Linear Solver

Initial Transient Solution
--------------------------

Node                                   Voltage
----                                   -------
vdd                                     1.6818
in                                           0
b                                       1.6818
abar                                    1.6818
bbar                               1.47965e-09
out                                     1.6818
vb#branch                                    0
vin#branch                         4.70127e-12
vdd#branch                         -1.5494e-11

 Reference value :  2.17844e-08
 Reference value :  5.13244e-08
 Reference value :  8.23644e-08
No. of Data Rows : 60047

  Measurements for Transient Analysis

tphl                =  3.38358e-10 targ=  2.50407e-09 trig=  2.16571e-09
tplh                =  4.37813e-10 targ=  2.29349e-08 trig=  2.24971e-08
i_vdd_avg           =  -4.92483e-06 from=  5.00000e-09 to=  1.10002e-07
power_avg_uw        =  8.28258e+00


Total analysis time (seconds) = 0.910659

Total elapsed time (seconds) = 0.991 

Total DRAM available = 16384.000 MB.
DRAM currently available =  185.203 MB.
Maximum ngspice program size =   13.031 MB.
Current ngspice program size =   13.031 MB.

