
Note: No compatibility mode selected!


Circuit: INV seed characterization sample 4322016

Doing analysis at TEMP = 73.749400 and TNOM = 27.000000

Using SPARSE 1.3 as Direct Linear Solver

Initial Transient Solution
--------------------------

Node                                   Voltage
----                                   -------
vdd                                    1.95258
in                                           0
out                                    1.95258
vin#branch                                   0
vdd#branch                        -6.07251e-12

 Reference value :  5.62708e-08
No. of Data Rows : 60044

  Measurements for Transient Analysis

tphl                =  6.46882e-10 targ=  2.78380e-09 trig=  2.13692e-09
tplh                =  6.18954e-10 targ=  2.30297e-08 trig=  2.24108e-08
i_vdd_avg           =  -4.47709e-06 from=  5.00000e-09 to=  1.10001e-07
power_avg_uw        =  8.74188e+00


Total analysis time (seconds) = 0.36689

Total elapsed time (seconds) = 0.444 

Total DRAM available = 16384.000 MB.
DRAM currently available =  157.547 MB.
Maximum ngspice program size =   12.562 MB.
Current ngspice program size =   12.469 MB.

