
Note: No compatibility mode selected!


Circuit: INV seed characterization sample 4322015

Doing analysis at TEMP = 83.253000 and TNOM = 27.000000

Using SPARSE 1.3 as Direct Linear Solver

Initial Transient Solution
--------------------------

Node                                   Voltage
----                                   -------
vdd                                    1.63071
in                                           0
out                                    1.63071
vin#branch                                   0
vdd#branch                        -4.09044e-11

 Reference value :  5.77171e-08
No. of Data Rows : 60044

  Measurements for Transient Analysis

tphl                =  1.08166e-10 targ=  2.22524e-09 trig=  2.11707e-09
tplh                =  1.24315e-10 targ=  2.24755e-08 trig=  2.23512e-08
i_vdd_avg           =  -1.61336e-06 from=  5.00000e-09 to=  1.10001e-07
power_avg_uw        =  2.63092e+00


Total analysis time (seconds) = 0.362642

Total elapsed time (seconds) = 0.438 

Total DRAM available = 16384.000 MB.
DRAM currently available =  157.547 MB.
Maximum ngspice program size =   12.562 MB.
Current ngspice program size =   12.016 MB.

