
Note: No compatibility mode selected!


Circuit: INV seed characterization sample 6020011

Doing analysis at TEMP = 61.216500 and TNOM = 27.000000

Using SPARSE 1.3 as Direct Linear Solver

Initial Transient Solution
--------------------------

Node                                   Voltage
----                                   -------
vdd                                      1.705
in                                           0
out                                      1.705
vin#branch                                   0
vdd#branch                        -1.23963e-11

 Reference value :  4.92832e-08
No. of Data Rows : 60044

  Measurements for Transient Analysis

tphl                =  1.46014e-10 targ=  2.25012e-09 trig=  2.10410e-09
tplh                =  2.13724e-10 targ=  2.25260e-08 trig=  2.23123e-08
i_vdd_avg           =  -3.41000e-06 from=  5.00000e-09 to=  1.10001e-07
power_avg_uw        =  5.81405e+00


Total analysis time (seconds) = 0.321219

Total elapsed time (seconds) = 0.431 

Total DRAM available = 16384.000 MB.
DRAM currently available =  106.906 MB.
Maximum ngspice program size =   14.359 MB.
Current ngspice program size =   14.359 MB.

