
Note: No compatibility mode selected!


Circuit: NOR2 seed characterization sample 6020064

Doing analysis at TEMP = 40.694100 and TNOM = 27.000000

Using SPARSE 1.3 as Direct Linear Solver

Initial Transient Solution
--------------------------

Node                                   Voltage
----                                   -------
vdd                                    1.74214
in                                           0
out                                    1.74214
pmid                                   1.74214
vin#branch                                   0
vdd#branch                        -7.76658e-12

 Reference value :  3.56871e-08
 Reference value :  9.46911e-08
No. of Data Rows : 60044

  Measurements for Transient Analysis

tphl                =  1.31025e-10 targ=  2.33706e-09 trig=  2.20604e-09
tplh                =  4.50050e-10 targ=  2.30682e-08 trig=  2.26181e-08
i_vdd_avg           =  -3.07148e-06 from=  5.00000e-09 to=  1.10001e-07
power_avg_uw        =  5.35095e+00


Total analysis time (seconds) = 0.510675

Total elapsed time (seconds) = 0.600 

Total DRAM available = 16384.000 MB.
DRAM currently available =  106.906 MB.
Maximum ngspice program size =   13.438 MB.
Current ngspice program size =   11.609 MB.

