
Note: No compatibility mode selected!


Circuit: INV seed characterization sample 6020010

Doing analysis at TEMP = 55.456500 and TNOM = 27.000000

Using SPARSE 1.3 as Direct Linear Solver

Initial Transient Solution
--------------------------

Node                                   Voltage
----                                   -------
vdd                                    1.68306
in                                           0
out                                    1.68306
vin#branch                                   0
vdd#branch                        -5.22082e-12

 Reference value :  5.47716e-08
No. of Data Rows : 60041

  Measurements for Transient Analysis

tphl                =  1.03168e-10 targ=  2.24647e-09 trig=  2.14330e-09
tplh                =  1.41289e-10 targ=  2.25712e-08 trig=  2.24299e-08
i_vdd_avg           =  -7.50330e-07 from=  5.00000e-09 to=  1.10000e-07
power_avg_uw        =  1.26285e+00


Total analysis time (seconds) = 0.319695

Total elapsed time (seconds) = 0.417 

Total DRAM available = 16384.000 MB.
DRAM currently available =  106.906 MB.
Maximum ngspice program size =   13.719 MB.
Current ngspice program size =   13.719 MB.

