
Note: No compatibility mode selected!


Circuit: XOR2 seed characterization sample 4004008

Doing analysis at TEMP = 13.460800 and TNOM = 27.000000

Using SPARSE 1.3 as Direct Linear Solver

Initial Transient Solution
--------------------------

Node                                   Voltage
----                                   -------
vdd                                    1.77727
in                                           0
b                                      1.77727
abar                                   1.77727
bbar                               9.64051e-10
out                                    1.77727
vb#branch                                    0
vin#branch                         9.39267e-12
vdd#branch                        -2.42453e-11

 Reference value :  2.59635e-08
 Reference value :  6.03493e-08
 Reference value :  9.52113e-08
No. of Data Rows : 60044

  Measurements for Transient Analysis

tphl                =  8.04255e-11 targ=  2.10656e-09 trig=  2.02613e-09
tplh                =  1.18086e-10 targ=  2.21965e-08 trig=  2.20784e-08
i_vdd_avg           =  -2.35295e-06 from=  5.00000e-09 to=  1.10002e-07
power_avg_uw        =  4.18182e+00


Total analysis time (seconds) = 0.828677

Total elapsed time (seconds) = 0.902 

Total DRAM available = 16384.000 MB.
DRAM currently available =  202.297 MB.
Maximum ngspice program size =   12.578 MB.
Current ngspice program size =   12.156 MB.

