
Note: No compatibility mode selected!


Circuit: XOR2 seed characterization sample 4004048

Doing analysis at TEMP = 4.298420 and TNOM = 27.000000

Using SPARSE 1.3 as Direct Linear Solver

Initial Transient Solution
--------------------------

Node                                   Voltage
----                                   -------
vdd                                    1.81182
in                                           0
b                                      1.81182
abar                                   1.81182
bbar                               7.58499e-10
out                                    1.81182
vb#branch                                    0
vin#branch                         6.48975e-12
vdd#branch                        -1.92439e-11

 Reference value :  2.69763e-08
 Reference value :  6.20846e-08
 Reference value :  9.94306e-08
No. of Data Rows : 60044

  Measurements for Transient Analysis

tphl                =  1.24892e-10 targ=  2.20570e-09 trig=  2.08081e-09
tplh                =  1.36374e-10 targ=  2.23788e-08 trig=  2.22424e-08
i_vdd_avg           =  -4.03348e-06 from=  5.00000e-09 to=  1.10000e-07
power_avg_uw        =  7.30795e+00


Total analysis time (seconds) = 0.797725

Total elapsed time (seconds) = 0.868 

Total DRAM available = 16384.000 MB.
DRAM currently available =  185.234 MB.
Maximum ngspice program size =   12.578 MB.
Current ngspice program size =   12.469 MB.

