
Note: No compatibility mode selected!


Circuit: NOR2 seed characterization sample 4004019

Doing analysis at TEMP = 51.805500 and TNOM = 27.000000

Using SPARSE 1.3 as Direct Linear Solver

Initial Transient Solution
--------------------------

Node                                   Voltage
----                                   -------
vdd                                    1.93154
in                                           0
out                                    1.93154
pmid                                   1.93154
vin#branch                                   0
vdd#branch                        -1.43409e-10

 Reference value :  4.74012e-08
 Reference value :  1.08621e-07
No. of Data Rows : 60044

  Measurements for Transient Analysis

tphl                =  7.65948e-11 targ=  2.14869e-09 trig=  2.07210e-09
tplh                =  3.50413e-10 targ=  2.25667e-08 trig=  2.22163e-08
i_vdd_avg           =  -4.16109e-06 from=  5.00000e-09 to=  1.10001e-07
power_avg_uw        =  8.03731e+00


Total analysis time (seconds) = 0.472864

Total elapsed time (seconds) = 0.541 

Total DRAM available = 16384.000 MB.
DRAM currently available =  186.906 MB.
Maximum ngspice program size =   12.562 MB.
Current ngspice program size =   11.594 MB.

