
Note: No compatibility mode selected!


Circuit: NOR2 seed characterization sample 4004035

Doing analysis at TEMP = 23.466000 and TNOM = 27.000000

Using SPARSE 1.3 as Direct Linear Solver

Initial Transient Solution
--------------------------

Node                                   Voltage
----                                   -------
vdd                                    1.74201
in                                           0
out                                    1.74201
pmid                                   1.74201
vin#branch                                   0
vdd#branch                        -1.74833e-11

 Reference value :  4.58961e-08
 Reference value :  1.06503e-07
No. of Data Rows : 60047

  Measurements for Transient Analysis

tphl                =  1.17902e-10 targ=  2.26844e-09 trig=  2.15053e-09
tplh                =  4.49527e-10 targ=  2.29011e-08 trig=  2.24516e-08
i_vdd_avg           =  -3.48286e-06 from=  5.00000e-09 to=  1.10001e-07
power_avg_uw        =  6.06719e+00


Total analysis time (seconds) = 0.478644

Total elapsed time (seconds) = 0.549 

Total DRAM available = 16384.000 MB.
DRAM currently available =  188.469 MB.
Maximum ngspice program size =   12.562 MB.
Current ngspice program size =   11.625 MB.

