
Note: No compatibility mode selected!


Circuit: NAND2 seed characterization sample 4004042

Doing analysis at TEMP = 81.722600 and TNOM = 27.000000

Using SPARSE 1.3 as Direct Linear Solver

Initial Transient Solution
--------------------------

Node                                   Voltage
----                                   -------
vdd                                    1.97611
in                                           0
out                                    1.97611
nmid                                 0.0610192
vin#branch                                   0
vdd#branch                         -7.4102e-11

 Reference value :  4.71695e-08
 Reference value :  1.08052e-07
No. of Data Rows : 60041

  Measurements for Transient Analysis

tphl                =  1.80565e-10 targ=  2.28684e-09 trig=  2.10627e-09
tplh                =  9.41023e-11 targ=  2.24129e-08 trig=  2.23188e-08
i_vdd_avg           =  -4.02184e-06 from=  5.00000e-09 to=  1.10000e-07
power_avg_uw        =  7.94760e+00


Total analysis time (seconds) = 0.473132

Total elapsed time (seconds) = 0.542 

Total DRAM available = 16384.000 MB.
DRAM currently available =  191.656 MB.
Maximum ngspice program size =   12.562 MB.
Current ngspice program size =   11.656 MB.

