
Note: No compatibility mode selected!


Circuit: XOR2 seed characterization sample 4004036

Doing analysis at TEMP = 7.525160 and TNOM = 27.000000

Using SPARSE 1.3 as Direct Linear Solver

Initial Transient Solution
--------------------------

Node                                   Voltage
----                                   -------
vdd                                    1.69127
in                                           0
b                                      1.69127
abar                                   1.69127
bbar                               1.30042e-09
out                                    1.69127
vb#branch                                    0
vin#branch                         4.56661e-12
vdd#branch                        -1.52724e-11

 Reference value :  2.65636e-08
 Reference value :  6.14713e-08
 Reference value :  9.84653e-08
No. of Data Rows : 60044

  Measurements for Transient Analysis

tphl                =  2.74444e-10 targ=  2.46660e-09 trig=  2.19216e-09
tplh                =  4.17392e-10 targ=  2.29939e-08 trig=  2.25765e-08
i_vdd_avg           =  -4.44163e-06 from=  5.00000e-09 to=  1.10002e-07
power_avg_uw        =  7.51200e+00


Total analysis time (seconds) = 0.803335

Total elapsed time (seconds) = 0.874 

Total DRAM available = 16384.000 MB.
DRAM currently available =  188.469 MB.
Maximum ngspice program size =   12.875 MB.
Current ngspice program size =   12.875 MB.

