
Note: No compatibility mode selected!


Circuit: NAND2 seed characterization sample 4004018

Doing analysis at TEMP = 40.725400 and TNOM = 27.000000

Using SPARSE 1.3 as Direct Linear Solver

Initial Transient Solution
--------------------------

Node                                   Voltage
----                                   -------
vdd                                    1.79045
in                                           0
out                                    1.79045
nmid                                 0.0528839
vin#branch                                   0
vdd#branch                        -2.78284e-12

 Reference value :  4.77548e-08
 Reference value :  1.09661e-07
No. of Data Rows : 60044

  Measurements for Transient Analysis

tphl                =  1.15354e-09 targ=  3.23646e-09 trig=  2.08292e-09
tplh                =  5.53586e-10 targ=  2.28024e-08 trig=  2.22488e-08
i_vdd_avg           =  -4.82884e-06 from=  5.00000e-09 to=  1.10001e-07
power_avg_uw        =  8.64579e+00


Total analysis time (seconds) = 0.466902

Total elapsed time (seconds) = 0.535 

Total DRAM available = 16384.000 MB.
DRAM currently available =  186.906 MB.
Maximum ngspice program size =   12.562 MB.
Current ngspice program size =   11.750 MB.

