
Note: No compatibility mode selected!


Circuit: NAND2 seed characterization sample 4004046

Doing analysis at TEMP = 87.909800 and TNOM = 27.000000

Using SPARSE 1.3 as Direct Linear Solver

Initial Transient Solution
--------------------------

Node                                   Voltage
----                                   -------
vdd                                    1.62196
in                                           0
out                                    1.62196
nmid                                 0.0536594
vin#branch                                   0
vdd#branch                        -8.75921e-11

 Reference value :  4.69564e-08
 Reference value :  1.07770e-07
No. of Data Rows : 60047

  Measurements for Transient Analysis

tphl                =  1.43747e-10 targ=  2.25947e-09 trig=  2.11572e-09
tplh                =  7.88226e-11 targ=  2.24260e-08 trig=  2.23472e-08
i_vdd_avg           =  -1.54677e-06 from=  5.00000e-09 to=  1.10002e-07
power_avg_uw        =  2.50881e+00


Total analysis time (seconds) = 0.474268

Total elapsed time (seconds) = 0.543 

Total DRAM available = 16384.000 MB.
DRAM currently available =  185.234 MB.
Maximum ngspice program size =   12.562 MB.
Current ngspice program size =   11.656 MB.

