
Note: No compatibility mode selected!


Circuit: NOR2 seed characterization sample 4004039

Doing analysis at TEMP = -11.714800 and TNOM = 27.000000

Using SPARSE 1.3 as Direct Linear Solver

Initial Transient Solution
--------------------------

Node                                   Voltage
----                                   -------
vdd                                    1.91924
in                                           0
out                                    1.91924
pmid                                   1.91924
vin#branch                                   0
vdd#branch                        -4.13608e-12

 Reference value :  4.58707e-08
 Reference value :  1.06046e-07
No. of Data Rows : 60044

  Measurements for Transient Analysis

tphl                =  5.19015e-11 targ=  2.16677e-09 trig=  2.11487e-09
tplh                =  1.56725e-10 targ=  2.25013e-08 trig=  2.23446e-08
i_vdd_avg           =  -5.46404e-07 from=  5.00000e-09 to=  1.10000e-07
power_avg_uw        =  1.04868e+00


Total analysis time (seconds) = 0.480027

Total elapsed time (seconds) = 0.551 

Total DRAM available = 16384.000 MB.
DRAM currently available =  202.188 MB.
Maximum ngspice program size =   12.562 MB.
Current ngspice program size =   12.203 MB.

