
Note: No compatibility mode selected!


Circuit: NOR2 seed characterization sample 4004007

Doing analysis at TEMP = -17.608100 and TNOM = 27.000000

Using SPARSE 1.3 as Direct Linear Solver

Initial Transient Solution
--------------------------

Node                                   Voltage
----                                   -------
vdd                                    1.65556
in                                           0
out                                    1.65556
pmid                                   1.65556
vin#branch                                   0
vdd#branch                        -3.71059e-12

 Reference value :  4.52550e-08
 Reference value :  1.04915e-07
No. of Data Rows : 60044

  Measurements for Transient Analysis

tphl                =  1.01137e-10 targ=  2.33516e-09 trig=  2.23402e-09
tplh                =  3.15027e-10 targ=  2.30171e-08 trig=  2.27021e-08
i_vdd_avg           =  -1.82963e-06 from=  5.00000e-09 to=  1.10001e-07
power_avg_uw        =  3.02907e+00


Total analysis time (seconds) = 0.486897

Total elapsed time (seconds) = 0.559 

Total DRAM available = 16384.000 MB.
DRAM currently available =  202.297 MB.
Maximum ngspice program size =   12.562 MB.
Current ngspice program size =   11.625 MB.

