
Note: No compatibility mode selected!


Circuit: NAND2 seed characterization sample 4004006

Doing analysis at TEMP = 5.972140 and TNOM = 27.000000

Using SPARSE 1.3 as Direct Linear Solver

Initial Transient Solution
--------------------------

Node                                   Voltage
----                                   -------
vdd                                    1.64523
in                                           0
out                                    1.64523
nmid                                 0.0372428
vin#branch                                   0
vdd#branch                        -1.83972e-12

 Reference value :  4.58115e-08
 Reference value :  1.06262e-07
No. of Data Rows : 60041

  Measurements for Transient Analysis

tphl                =  1.43541e-10 targ=  2.31380e-09 trig=  2.17026e-09
tplh                =  8.19306e-11 targ=  2.25927e-08 trig=  2.25108e-08
i_vdd_avg           =  -5.34544e-07 from=  5.00000e-09 to=  1.10000e-07
power_avg_uw        =  8.79447e-01


Total analysis time (seconds) = 0.47861

Total elapsed time (seconds) = 0.552 

Total DRAM available = 16384.000 MB.
DRAM currently available =  202.297 MB.
Maximum ngspice program size =   12.562 MB.
Current ngspice program size =   12.125 MB.

