
Note: No compatibility mode selected!


Circuit: NOR2 seed characterization sample 4004031

Doing analysis at TEMP = -5.037920 and TNOM = 27.000000

Using SPARSE 1.3 as Direct Linear Solver

Initial Transient Solution
--------------------------

Node                                   Voltage
----                                   -------
vdd                                    1.78391
in                                           0
out                                    1.78391
pmid                                   1.78391
vin#branch                                   0
vdd#branch                        -5.75921e-12

 Reference value :  4.62576e-08
 Reference value :  1.06946e-07
No. of Data Rows : 60041

  Measurements for Transient Analysis

tphl                =  6.23089e-11 targ=  2.12158e-09 trig=  2.05928e-09
tplh                =  2.04252e-10 targ=  2.23821e-08 trig=  2.21778e-08
i_vdd_avg           =  -3.24758e-06 from=  5.00000e-09 to=  1.10000e-07
power_avg_uw        =  5.79338e+00


Total analysis time (seconds) = 0.475847

Total elapsed time (seconds) = 0.547 

Total DRAM available = 16384.000 MB.
DRAM currently available =  183.297 MB.
Maximum ngspice program size =   12.562 MB.
Current ngspice program size =   11.734 MB.

