
Note: No compatibility mode selected!


Circuit: NAND2 seed characterization sample 4004034

Doing analysis at TEMP = -14.489600 and TNOM = 27.000000

Using SPARSE 1.3 as Direct Linear Solver

Initial Transient Solution
--------------------------

Node                                   Voltage
----                                   -------
vdd                                    1.86651
in                                           0
out                                    1.86651
nmid                                 0.0235261
vin#branch                                   0
vdd#branch                        -1.94906e-12

 Reference value :  4.68074e-08
 Reference value :  1.08318e-07
No. of Data Rows : 60044

  Measurements for Transient Analysis

tphl                =  3.04092e-10 targ=  2.34727e-09 trig=  2.04318e-09
tplh                =  1.09733e-10 targ=  2.22393e-08 trig=  2.21295e-08
i_vdd_avg           =  -3.94292e-06 from=  5.00000e-09 to=  1.10002e-07
power_avg_uw        =  7.35949e+00


Total analysis time (seconds) = 0.470391

Total elapsed time (seconds) = 0.541 

Total DRAM available = 16384.000 MB.
DRAM currently available =  188.469 MB.
Maximum ngspice program size =   12.562 MB.
Current ngspice program size =   11.969 MB.

