
Note: No compatibility mode selected!


Circuit: NAND2 seed characterization sample 4100037

Doing analysis at TEMP = 31.097100 and TNOM = 27.000000

Using SPARSE 1.3 as Direct Linear Solver

Initial Transient Solution
--------------------------

Node                                   Voltage
----                                   -------
vdd                                     1.9507
in                                           0
out                                     1.9507
nmid                                 0.0557965
vin#branch                                   0
vdd#branch                         -3.1895e-12

 Reference value :  3.78716e-08
 Reference value :  9.16093e-08
No. of Data Rows : 60044

  Measurements for Transient Analysis

tphl                =  3.81459e-10 targ=  2.53761e-09 trig=  2.15615e-09
tplh                =  1.89876e-10 targ=  2.26583e-08 trig=  2.24685e-08
i_vdd_avg           =  -4.62326e-06 from=  5.00000e-09 to=  1.10002e-07
power_avg_uw        =  9.01858e+00


Total analysis time (seconds) = 0.526192

Total elapsed time (seconds) = 0.609 

Total DRAM available = 16384.000 MB.
DRAM currently available =  279.891 MB.
Maximum ngspice program size =   12.562 MB.
Current ngspice program size =   12.156 MB.

