
Note: No compatibility mode selected!


Circuit: NAND2 seed characterization sample 4100004

Doing analysis at TEMP = 23.947800 and TNOM = 27.000000

Using SPARSE 1.3 as Direct Linear Solver

Initial Transient Solution
--------------------------

Node                                   Voltage
----                                   -------
vdd                                      1.878
in                                           0
out                                      1.878
nmid                                 0.0546238
vin#branch                                   0
vdd#branch                        -3.78383e-12

 Reference value :  4.81638e-08
 Reference value :  1.12107e-07
No. of Data Rows : 60041

  Measurements for Transient Analysis

tphl                =  2.06486e-10 targ=  2.25186e-09 trig=  2.04538e-09
tplh                =  7.88480e-11 targ=  2.22150e-08 trig=  2.21361e-08
i_vdd_avg           =  -5.77898e-06 from=  5.00000e-09 to=  1.10001e-07
power_avg_uw        =  1.08529e+01


Total analysis time (seconds) = 0.453986

Total elapsed time (seconds) = 0.522 

Total DRAM available = 16384.000 MB.
DRAM currently available =  302.609 MB.
Maximum ngspice program size =   12.562 MB.
Current ngspice program size =   11.656 MB.

