
Note: No compatibility mode selected!


Circuit: NAND2 seed characterization sample 4100010

Doing analysis at TEMP = 50.067100 and TNOM = 27.000000

Using SPARSE 1.3 as Direct Linear Solver

Initial Transient Solution
--------------------------

Node                                   Voltage
----                                   -------
vdd                                    1.74187
in                                           0
out                                    1.74187
nmid                                 0.0541794
vin#branch                                   0
vdd#branch                         -1.4967e-11

 Reference value :  4.52626e-08
 Reference value :  1.03318e-07
No. of Data Rows : 60044

  Measurements for Transient Analysis

tphl                =  1.77083e-10 targ=  2.29787e-09 trig=  2.12078e-09
tplh                =  8.66810e-11 targ=  2.24490e-08 trig=  2.23624e-08
i_vdd_avg           =  -3.54672e-06 from=  5.00000e-09 to=  1.10000e-07
power_avg_uw        =  6.17793e+00


Total analysis time (seconds) = 0.490523

Total elapsed time (seconds) = 0.564 

Total DRAM available = 16384.000 MB.
DRAM currently available =  236.656 MB.
Maximum ngspice program size =   12.562 MB.
Current ngspice program size =   12.094 MB.

