
Note: No compatibility mode selected!


Circuit: NOR2 seed characterization sample 4100044

Doing analysis at TEMP = -10.861700 and TNOM = 27.000000

Using SPARSE 1.3 as Direct Linear Solver

Initial Transient Solution
--------------------------

Node                                   Voltage
----                                   -------
vdd                                    1.63148
in                                           0
out                                    1.63148
pmid                                   1.63148
vin#branch                                   0
vdd#branch                        -3.48002e-12

 Reference value :  3.98077e-08
 Reference value :  9.57423e-08
No. of Data Rows : 60047

  Measurements for Transient Analysis

tphl                =  3.91780e-10 targ=  2.54945e-09 trig=  2.15767e-09
tplh                =  1.54558e-09 targ=  2.40186e-08 trig=  2.24730e-08
i_vdd_avg           =  -3.85460e-06 from=  5.00000e-09 to=  1.10002e-07
power_avg_uw        =  6.28870e+00


Total analysis time (seconds) = 0.516648

Total elapsed time (seconds) = 0.594 

Total DRAM available = 16384.000 MB.
DRAM currently available =  259.953 MB.
Maximum ngspice program size =   12.562 MB.
Current ngspice program size =   11.828 MB.

