
Note: No compatibility mode selected!


Circuit: XOR2 seed characterization sample 4100007

Doing analysis at TEMP = 94.928600 and TNOM = 27.000000

Using SPARSE 1.3 as Direct Linear Solver

Initial Transient Solution
--------------------------

Node                                   Voltage
----                                   -------
vdd                                    1.88437
in                                           0
b                                      1.88437
abar                                   1.88437
bbar                               9.02038e-08
out                                    1.88437
vb#branch                                    0
vin#branch                          2.5535e-10
vdd#branch                        -4.73935e-10

 Reference value :  2.72809e-08
 Reference value :  6.29369e-08
 Reference value :  9.94110e-08
No. of Data Rows : 60044

  Measurements for Transient Analysis

tphl                =  3.09911e-10 targ=  2.49089e-09 trig=  2.18098e-09
tplh                =  3.12131e-10 targ=  2.28551e-08 trig=  2.25429e-08
i_vdd_avg           =  -2.31821e-06 from=  5.00000e-09 to=  1.10001e-07
power_avg_uw        =  4.36837e+00


Total analysis time (seconds) = 0.805183

Total elapsed time (seconds) = 0.876 

Total DRAM available = 16384.000 MB.
DRAM currently available =  323.266 MB.
Maximum ngspice program size =   12.797 MB.
Current ngspice program size =   12.797 MB.

