
Note: No compatibility mode selected!


Circuit: XOR2 seed characterization sample 4100032

Doing analysis at TEMP = 32.982400 and TNOM = 27.000000

Using SPARSE 1.3 as Direct Linear Solver

Initial Transient Solution
--------------------------

Node                                   Voltage
----                                   -------
vdd                                    1.92003
in                                           0
b                                      1.92003
abar                                   1.92003
bbar                               1.92143e-09
out                                    1.92003
vb#branch                                    0
vin#branch                         3.13636e-11
vdd#branch                        -6.38377e-11

 Reference value :  2.26840e-08
 Reference value :  5.37020e-08
 Reference value :  8.80740e-08
No. of Data Rows : 60041

  Measurements for Transient Analysis

tphl                =  2.53930e-10 targ=  2.49243e-09 trig=  2.23850e-09
tplh                =  2.71963e-10 targ=  2.29875e-08 trig=  2.27155e-08
i_vdd_avg           =  -5.80107e-06 from=  5.00000e-09 to=  1.10001e-07
power_avg_uw        =  1.11382e+01


Total analysis time (seconds) = 0.879701

Total elapsed time (seconds) = 0.958 

Total DRAM available = 16384.000 MB.
DRAM currently available =  265.281 MB.
Maximum ngspice program size =   12.922 MB.
Current ngspice program size =   12.922 MB.

