
Note: No compatibility mode selected!


Circuit: NOR2 seed characterization sample 4100014

Doing analysis at TEMP = 11.138500 and TNOM = 27.000000

Using SPARSE 1.3 as Direct Linear Solver

Initial Transient Solution
--------------------------

Node                                   Voltage
----                                   -------
vdd                                    1.74392
in                                           0
out                                    1.74392
pmid                                   1.74392
vin#branch                                   0
vdd#branch                        -1.39675e-11

 Reference value :  3.51550e-08
 Reference value :  9.08780e-08
No. of Data Rows : 60041

  Measurements for Transient Analysis

tphl                =  4.41376e-11 targ=  2.08163e-09 trig=  2.03749e-09
tplh                =  1.61050e-10 targ=  2.22735e-08 trig=  2.21125e-08
i_vdd_avg           =  -2.82611e-06 from=  5.00000e-09 to=  1.10001e-07
power_avg_uw        =  4.92851e+00


Total analysis time (seconds) = 0.517984

Total elapsed time (seconds) = 0.615 

Total DRAM available = 16384.000 MB.
DRAM currently available =  251.484 MB.
Maximum ngspice program size =   13.422 MB.
Current ngspice program size =   11.844 MB.

