
Note: No compatibility mode selected!


Circuit: NAND2 seed characterization sample 4100040

Doing analysis at TEMP = 45.403500 and TNOM = 27.000000

Using SPARSE 1.3 as Direct Linear Solver

Initial Transient Solution
--------------------------

Node                                   Voltage
----                                   -------
vdd                                    1.96543
in                                           0
out                                    1.96543
nmid                                 0.0585379
vin#branch                                   0
vdd#branch                        -6.51919e-12

 Reference value :  3.74913e-08
 Reference value :  9.17032e-08
No. of Data Rows : 60044

  Measurements for Transient Analysis

tphl                =  2.57848e-10 targ=  2.39993e-09 trig=  2.14208e-09
tplh                =  1.33962e-10 targ=  2.25602e-08 trig=  2.24262e-08
i_vdd_avg           =  -3.78501e-06 from=  5.00000e-09 to=  1.10001e-07
power_avg_uw        =  7.43916e+00


Total analysis time (seconds) = 0.524045

Total elapsed time (seconds) = 0.608 

Total DRAM available = 16384.000 MB.
DRAM currently available =  279.891 MB.
Maximum ngspice program size =   12.656 MB.
Current ngspice program size =   12.656 MB.

