
Note: No compatibility mode selected!


Circuit: XOR2 seed characterization sample 4101008

Doing analysis at TEMP = 58.514300 and TNOM = 27.000000

Using SPARSE 1.3 as Direct Linear Solver

Initial Transient Solution
--------------------------

Node                                   Voltage
----                                   -------
vdd                                    1.78233
in                                           0
b                                      1.78233
abar                                   1.78233
bbar                               7.03778e-09
out                                    1.78233
vb#branch                                    0
vin#branch                         1.81794e-10
vdd#branch                        -3.31607e-10

 Reference value :  2.69164e-08
 Reference value :  6.19297e-08
 Reference value :  9.92837e-08
No. of Data Rows : 60041

  Measurements for Transient Analysis

tphl                =  2.40033e-10 targ=  2.33439e-09 trig=  2.09435e-09
tplh                =  2.40921e-10 targ=  2.25240e-08 trig=  2.22831e-08
i_vdd_avg           =  -7.55812e-06 from=  5.00000e-09 to=  1.10000e-07
power_avg_uw        =  1.34711e+01


Total analysis time (seconds) = 0.797261

Total elapsed time (seconds) = 0.867 

Total DRAM available = 16384.000 MB.
DRAM currently available =  263.609 MB.
Maximum ngspice program size =   12.578 MB.
Current ngspice program size =   11.734 MB.

