
Note: No compatibility mode selected!


Circuit: INV seed characterization sample 4101021

Doing analysis at TEMP = 44.576600 and TNOM = 27.000000

Using SPARSE 1.3 as Direct Linear Solver

Initial Transient Solution
--------------------------

Node                                   Voltage
----                                   -------
vdd                                    1.73227
in                                           0
out                                    1.73227
vin#branch                                   0
vdd#branch                        -4.74183e-11

 Reference value :  7.11673e-08
No. of Data Rows : 60044

  Measurements for Transient Analysis

tphl                =  8.24871e-11 targ=  2.16255e-09 trig=  2.08006e-09
tplh                =  1.15940e-10 targ=  2.23561e-08 trig=  2.22402e-08
i_vdd_avg           =  -1.99760e-06 from=  5.00000e-09 to=  1.10001e-07
power_avg_uw        =  3.46038e+00


Total analysis time (seconds) = 0.296264

Total elapsed time (seconds) = 0.370 

Total DRAM available = 16384.000 MB.
DRAM currently available =  238.531 MB.
Maximum ngspice program size =   13.188 MB.
Current ngspice program size =   12.984 MB.

