
Note: No compatibility mode selected!


Circuit: NOR2 seed characterization sample 4101039

Doing analysis at TEMP = 61.249000 and TNOM = 27.000000

Using SPARSE 1.3 as Direct Linear Solver

Initial Transient Solution
--------------------------

Node                                   Voltage
----                                   -------
vdd                                    1.88039
in                                           0
out                                    1.88039
pmid                                   1.88039
vin#branch                                   0
vdd#branch                        -2.04963e-10

 Reference value :  4.62950e-08
 Reference value :  1.06147e-07
No. of Data Rows : 60044

  Measurements for Transient Analysis

tphl                =  1.21325e-10 targ=  2.22333e-09 trig=  2.10200e-09
tplh                =  4.12730e-10 targ=  2.27187e-08 trig=  2.23060e-08
i_vdd_avg           =  -5.83173e-06 from=  5.00000e-09 to=  1.10001e-07
power_avg_uw        =  1.09659e+01


Total analysis time (seconds) = 0.481746

Total elapsed time (seconds) = 0.551 

Total DRAM available = 16384.000 MB.
DRAM currently available =  255.500 MB.
Maximum ngspice program size =   12.625 MB.
Current ngspice program size =   11.688 MB.

