
Note: No compatibility mode selected!


Circuit: XOR2 seed characterization sample 4101028

Doing analysis at TEMP = -14.120200 and TNOM = 27.000000

Using SPARSE 1.3 as Direct Linear Solver

Initial Transient Solution
--------------------------

Node                                   Voltage
----                                   -------
vdd                                    1.65115
in                                           0
b                                      1.65115
abar                                   1.65115
bbar                               1.38924e-09
out                                    1.65115
vb#branch                                    0
vin#branch                         1.99223e-12
vdd#branch                        -1.05492e-11

 Reference value :  2.63330e-08
 Reference value :  6.13120e-08
 Reference value :  9.83040e-08
No. of Data Rows : 60041

  Measurements for Transient Analysis

tphl                =  1.56626e-10 targ=  2.29012e-09 trig=  2.13350e-09
tplh                =  2.32169e-10 targ=  2.26327e-08 trig=  2.24005e-08
i_vdd_avg           =  -1.77458e-06 from=  5.00000e-09 to=  1.10001e-07
power_avg_uw        =  2.93010e+00


Total analysis time (seconds) = 0.802726

Total elapsed time (seconds) = 0.875 

Total DRAM available = 16384.000 MB.
DRAM currently available =  255.891 MB.
Maximum ngspice program size =   12.953 MB.
Current ngspice program size =   12.953 MB.

