
Note: No compatibility mode selected!


Circuit: XOR2 seed characterization sample 4101004

Doing analysis at TEMP = 25.981000 and TNOM = 27.000000

Using SPARSE 1.3 as Direct Linear Solver

Initial Transient Solution
--------------------------

Node                                   Voltage
----                                   -------
vdd                                    1.93726
in                                           0
b                                      1.93726
abar                                   1.93726
bbar                               2.28182e-09
out                                    1.93726
vb#branch                                    0
vin#branch                         1.19109e-11
vdd#branch                         -2.9202e-11

 Reference value :  2.57571e-08
 Reference value :  6.04360e-08
 Reference value :  9.70140e-08
No. of Data Rows : 60047

  Measurements for Transient Analysis

tphl                =  1.76645e-10 targ=  2.23717e-09 trig=  2.06052e-09
tplh                =  2.18384e-10 targ=  2.23999e-08 trig=  2.21816e-08
i_vdd_avg           =  -3.20002e-06 from=  5.00000e-09 to=  1.10001e-07
power_avg_uw        =  6.19928e+00


Total analysis time (seconds) = 0.810528

Total elapsed time (seconds) = 0.885 

Total DRAM available = 16384.000 MB.
DRAM currently available =  253.781 MB.
Maximum ngspice program size =   12.578 MB.
Current ngspice program size =   11.656 MB.

