
Note: No compatibility mode selected!


Circuit: XOR2 seed characterization sample 4101020

Doing analysis at TEMP = 41.938600 and TNOM = 27.000000

Using SPARSE 1.3 as Direct Linear Solver

Initial Transient Solution
--------------------------

Node                                   Voltage
----                                   -------
vdd                                    1.90818
in                                           0
b                                      1.90818
abar                                   1.90818
bbar                               2.25798e-09
out                                    1.90818
vb#branch                                    0
vin#branch                         8.24562e-11
vdd#branch                        -1.55134e-10

 Reference value :  2.70213e-08
 Reference value :  6.24873e-08
 Reference value :  9.96562e-08
No. of Data Rows : 60047

  Measurements for Transient Analysis

tphl                =  1.53147e-10 targ=  2.23873e-09 trig=  2.08559e-09
tplh                =  1.65263e-10 targ=  2.24220e-08 trig=  2.22568e-08
i_vdd_avg           =  -5.75584e-06 from=  5.00000e-09 to=  1.10001e-07
power_avg_uw        =  1.09832e+01


Total analysis time (seconds) = 0.797492

Total elapsed time (seconds) = 0.867 

Total DRAM available = 16384.000 MB.
DRAM currently available =  264.188 MB.
Maximum ngspice program size =   12.578 MB.
Current ngspice program size =   11.781 MB.

