
Note: No compatibility mode selected!


Circuit: INV seed characterization sample 4101033

Doing analysis at TEMP = 59.132600 and TNOM = 27.000000

Using SPARSE 1.3 as Direct Linear Solver

Initial Transient Solution
--------------------------

Node                                   Voltage
----                                   -------
vdd                                     1.6366
in                                           0
out                                     1.6366
vin#branch                                   0
vdd#branch                        -8.97406e-11

 Reference value :  7.35401e-08
No. of Data Rows : 60044

  Measurements for Transient Analysis

tphl                =  1.57563e-10 targ=  2.32234e-09 trig=  2.16478e-09
tplh                =  1.84167e-10 targ=  2.26785e-08 trig=  2.24943e-08
i_vdd_avg           =  -2.81976e-06 from=  5.00000e-09 to=  1.10000e-07
power_avg_uw        =  4.61482e+00


Total analysis time (seconds) = 0.295246

Total elapsed time (seconds) = 0.365 

Total DRAM available = 16384.000 MB.
DRAM currently available =  236.266 MB.
Maximum ngspice program size =   12.562 MB.
Current ngspice program size =   12.312 MB.

