
Note: No compatibility mode selected!


Circuit: INV seed characterization sample 4101029

Doing analysis at TEMP = 90.056900 and TNOM = 27.000000

Using SPARSE 1.3 as Direct Linear Solver

Initial Transient Solution
--------------------------

Node                                   Voltage
----                                   -------
vdd                                    1.97565
in                                           0
out                                    1.97565
vin#branch                                   0
vdd#branch                         -8.3242e-10

 Reference value :  7.18735e-08
No. of Data Rows : 60047

  Measurements for Transient Analysis

tphl                =  5.20693e-11 targ=  2.10868e-09 trig=  2.05661e-09
tplh                =  5.48246e-11 targ=  2.22247e-08 trig=  2.21698e-08
i_vdd_avg           =  -1.73395e-06 from=  5.00000e-09 to=  1.10001e-07
power_avg_uw        =  3.42568e+00


Total analysis time (seconds) = 0.299155

Total elapsed time (seconds) = 0.370 

Total DRAM available = 16384.000 MB.
DRAM currently available =  231.297 MB.
Maximum ngspice program size =   12.562 MB.
Current ngspice program size =   11.906 MB.

