
Note: No compatibility mode selected!


Circuit: NOR2 seed characterization sample 4101031

Doing analysis at TEMP = -2.142150 and TNOM = 27.000000

Using SPARSE 1.3 as Direct Linear Solver

Initial Transient Solution
--------------------------

Node                                   Voltage
----                                   -------
vdd                                    1.73062
in                                           0
out                                    1.73062
pmid                                   1.73062
vin#branch                                   0
vdd#branch                        -4.07625e-12

 Reference value :  4.59972e-08
 Reference value :  1.06215e-07
No. of Data Rows : 60044

  Measurements for Transient Analysis

tphl                =  1.21374e-10 targ=  2.19248e-09 trig=  2.07111e-09
tplh                =  3.58787e-10 targ=  2.25721e-08 trig=  2.22133e-08
i_vdd_avg           =  -2.27229e-06 from=  5.00000e-09 to=  1.10001e-07
power_avg_uw        =  3.93247e+00


Total analysis time (seconds) = 0.479029

Total elapsed time (seconds) = 0.550 

Total DRAM available = 16384.000 MB.
DRAM currently available =  247.938 MB.
Maximum ngspice program size =   12.562 MB.
Current ngspice program size =   11.656 MB.

