
Note: No compatibility mode selected!


Circuit: INV seed characterization sample 4101001

Doing analysis at TEMP = 68.408200 and TNOM = 27.000000

Using SPARSE 1.3 as Direct Linear Solver

Initial Transient Solution
--------------------------

Node                                   Voltage
----                                   -------
vdd                                    1.66922
in                                           0
out                                    1.66922
vin#branch                                   0
vdd#branch                        -1.05154e-10

 Reference value :  7.01931e-08
No. of Data Rows : 60044

  Measurements for Transient Analysis

tphl                =  1.99800e-10 targ=  2.39083e-09 trig=  2.19103e-09
tplh                =  2.54791e-10 targ=  2.28279e-08 trig=  2.25731e-08
i_vdd_avg           =  -2.88001e-06 from=  5.00000e-09 to=  1.10001e-07
power_avg_uw        =  4.80738e+00


Total analysis time (seconds) = 0.30181

Total elapsed time (seconds) = 0.375 

Total DRAM available = 16384.000 MB.
DRAM currently available =  238.250 MB.
Maximum ngspice program size =   12.562 MB.
Current ngspice program size =   11.594 MB.

