
Note: No compatibility mode selected!


Circuit: INV seed characterization sample 4101037

Doing analysis at TEMP = 63.223300 and TNOM = 27.000000

Using SPARSE 1.3 as Direct Linear Solver

Initial Transient Solution
--------------------------

Node                                   Voltage
----                                   -------
vdd                                    1.76275
in                                           0
out                                    1.76275
vin#branch                                   0
vdd#branch                        -1.20589e-10

 Reference value :  7.30518e-08
No. of Data Rows : 60047

  Measurements for Transient Analysis

tphl                =  6.78170e-11 targ=  2.18452e-09 trig=  2.11670e-09
tplh                =  1.00144e-10 targ=  2.24503e-08 trig=  2.23501e-08
i_vdd_avg           =  -1.06560e-06 from=  5.00000e-09 to=  1.10002e-07
power_avg_uw        =  1.87839e+00


Total analysis time (seconds) = 0.296539

Total elapsed time (seconds) = 0.367 

Total DRAM available = 16384.000 MB.
DRAM currently available =  233.797 MB.
Maximum ngspice program size =   12.562 MB.
Current ngspice program size =   12.094 MB.

