
Note: No compatibility mode selected!


Circuit: NOR2 seed characterization sample 4101007

Doing analysis at TEMP = 91.148200 and TNOM = 27.000000

Using SPARSE 1.3 as Direct Linear Solver

Initial Transient Solution
--------------------------

Node                                   Voltage
----                                   -------
vdd                                    1.71376
in                                           0
out                                    1.71376
pmid                                   1.71376
vin#branch                                   0
vdd#branch                        -1.31472e-09

 Reference value :  4.57339e-08
 Reference value :  1.05981e-07
No. of Data Rows : 60047

  Measurements for Transient Analysis

tphl                =  7.16048e-11 targ=  2.09013e-09 trig=  2.01853e-09
tplh                =  4.17357e-10 targ=  2.24729e-08 trig=  2.20556e-08
i_vdd_avg           =  -5.39909e-06 from=  5.00000e-09 to=  1.10001e-07
power_avg_uw        =  9.25274e+00


Total analysis time (seconds) = 0.48154

Total elapsed time (seconds) = 0.551 

Total DRAM available = 16384.000 MB.
DRAM currently available =  263.609 MB.
Maximum ngspice program size =   12.562 MB.
Current ngspice program size =   11.625 MB.

