
Note: No compatibility mode selected!


Circuit: NAND2 seed characterization sample 4111006

Doing analysis at TEMP = -12.666800 and TNOM = 27.000000

Using SPARSE 1.3 as Direct Linear Solver

Initial Transient Solution
--------------------------

Node                                   Voltage
----                                   -------
vdd                                    1.76359
in                                           0
out                                    1.76359
nmid                               0.000142789
vin#branch                                   0
vdd#branch                          -1.774e-12

 Reference value :  4.69943e-08
 Reference value :  1.09252e-07
No. of Data Rows : 60047

  Measurements for Transient Analysis

tphl                =  3.75563e-10 targ=  2.62521e-09 trig=  2.24964e-09
tplh                =  2.75067e-10 targ=  2.30240e-08 trig=  2.27489e-08
i_vdd_avg           =  -1.89460e-06 from=  5.00000e-09 to=  1.10002e-07
power_avg_uw        =  3.34130e+00


Total analysis time (seconds) = 0.466313

Total elapsed time (seconds) = 0.537 

Total DRAM available = 16384.000 MB.
DRAM currently available =  235.531 MB.
Maximum ngspice program size =   13.094 MB.
Current ngspice program size =   13.094 MB.

