
Note: No compatibility mode selected!


Circuit: INV seed characterization sample 4111041

Doing analysis at TEMP = 9.613020 and TNOM = 27.000000

Using SPARSE 1.3 as Direct Linear Solver

Initial Transient Solution
--------------------------

Node                                   Voltage
----                                   -------
vdd                                    1.74867
in                                           0
out                                    1.74867
vin#branch                                   0
vdd#branch                        -1.76967e-12

 Reference value :  7.17557e-08
No. of Data Rows : 60044

  Measurements for Transient Analysis

tphl                =  1.14392e-10 targ=  2.32656e-09 trig=  2.21216e-09
tplh                =  1.48566e-10 targ=  2.27851e-08 trig=  2.26365e-08
i_vdd_avg           =  -8.09479e-07 from=  5.00000e-09 to=  1.10002e-07
power_avg_uw        =  1.41551e+00


Total analysis time (seconds) = 0.294967

Total elapsed time (seconds) = 0.368 

Total DRAM available = 16384.000 MB.
DRAM currently available =  250.422 MB.
Maximum ngspice program size =   12.766 MB.
Current ngspice program size =   12.047 MB.

