
Note: No compatibility mode selected!


Circuit: XOR2 seed characterization sample 4111012

Doing analysis at TEMP = 53.862900 and TNOM = 27.000000

Using SPARSE 1.3 as Direct Linear Solver

Initial Transient Solution
--------------------------

Node                                   Voltage
----                                   -------
vdd                                    1.95879
in                                           0
b                                      1.95879
abar                                   1.95879
bbar                               1.66902e-09
out                                    1.95879
vb#branch                                    0
vin#branch                         2.58843e-12
vdd#branch                        -1.29135e-11

 Reference value :  2.67350e-08
 Reference value :  6.21560e-08
 Reference value :  9.98020e-08
No. of Data Rows : 60047

  Measurements for Transient Analysis

tphl                =  3.69484e-10 targ=  2.41599e-09 trig=  2.04650e-09
tplh                =  3.72221e-10 targ=  2.25117e-08 trig=  2.21395e-08
i_vdd_avg           =  -7.32476e-06 from=  5.00000e-09 to=  1.10001e-07
power_avg_uw        =  1.43477e+01


Total analysis time (seconds) = 0.789304

Total elapsed time (seconds) = 0.861 

Total DRAM available = 16384.000 MB.
DRAM currently available =  220.000 MB.
Maximum ngspice program size =   12.875 MB.
Current ngspice program size =   12.828 MB.

