
Note: No compatibility mode selected!


Circuit: NOR2 seed characterization sample 4111007

Doing analysis at TEMP = 92.145100 and TNOM = 27.000000

Using SPARSE 1.3 as Direct Linear Solver

Initial Transient Solution
--------------------------

Node                                   Voltage
----                                   -------
vdd                                    1.76829
in                                           0
out                                    1.76829
pmid                                   1.76829
vin#branch                                   0
vdd#branch                        -1.23677e-11

 Reference value :  4.68057e-08
 Reference value :  1.08478e-07
No. of Data Rows : 60041

  Measurements for Transient Analysis

tphl                =  1.72974e-10 targ=  2.24831e-09 trig=  2.07533e-09
tplh                =  6.07935e-10 targ=  2.28339e-08 trig=  2.22260e-08
i_vdd_avg           =  -5.17766e-06 from=  5.00000e-09 to=  1.10000e-07
power_avg_uw        =  9.15560e+00


Total analysis time (seconds) = 0.471174

Total elapsed time (seconds) = 0.541 

Total DRAM available = 16384.000 MB.
DRAM currently available =  235.531 MB.
Maximum ngspice program size =   12.594 MB.
Current ngspice program size =   11.625 MB.

