
Note: No compatibility mode selected!


Circuit: NOR2 seed characterization sample 4111003

Doing analysis at TEMP = 60.126800 and TNOM = 27.000000

Using SPARSE 1.3 as Direct Linear Solver

Initial Transient Solution
--------------------------

Node                                   Voltage
----                                   -------
vdd                                    1.68651
in                                           0
out                                    1.68651
pmid                                   1.68651
vin#branch                                   0
vdd#branch                        -3.64591e-12

 Reference value :  4.41533e-08
 Reference value :  1.03916e-07
No. of Data Rows : 60044

  Measurements for Transient Analysis

tphl                =  2.50694e-10 targ=  2.34484e-09 trig=  2.09415e-09
tplh                =  1.00790e-09 targ=  2.32903e-08 trig=  2.22824e-08
i_vdd_avg           =  -1.94188e-06 from=  5.00000e-09 to=  1.10002e-07
power_avg_uw        =  3.27501e+00


Total analysis time (seconds) = 0.485404

Total elapsed time (seconds) = 0.560 

Total DRAM available = 16384.000 MB.
DRAM currently available =  224.422 MB.
Maximum ngspice program size =   12.594 MB.
Current ngspice program size =   12.000 MB.

