
Note: No compatibility mode selected!


Circuit: INV seed characterization sample 4111009

Doing analysis at TEMP = 35.234300 and TNOM = 27.000000

Using SPARSE 1.3 as Direct Linear Solver

Initial Transient Solution
--------------------------

Node                                   Voltage
----                                   -------
vdd                                    1.77771
in                                           0
out                                    1.77771
vin#branch                                   0
vdd#branch                        -1.88417e-12

 Reference value :  7.57194e-08
No. of Data Rows : 60047

  Measurements for Transient Analysis

tphl                =  2.13917e-10 targ=  2.29251e-09 trig=  2.07860e-09
tplh                =  2.31720e-10 targ=  2.24675e-08 trig=  2.22358e-08
i_vdd_avg           =  -4.20788e-06 from=  5.00000e-09 to=  1.10001e-07
power_avg_uw        =  7.48039e+00


Total analysis time (seconds) = 0.285956

Total elapsed time (seconds) = 0.354 

Total DRAM available = 16384.000 MB.
DRAM currently available =  220.000 MB.
Maximum ngspice program size =   12.625 MB.
Current ngspice program size =   12.156 MB.

