
Note: No compatibility mode selected!


Circuit: NOR2 seed characterization sample 4111043

Doing analysis at TEMP = 15.401100 and TNOM = 27.000000

Using SPARSE 1.3 as Direct Linear Solver

Initial Transient Solution
--------------------------

Node                                   Voltage
----                                   -------
vdd                                    1.87753
in                                           0
out                                    1.87753
pmid                                   1.87753
vin#branch                                   0
vdd#branch                        -3.78627e-12

 Reference value :  4.43127e-08
 Reference value :  1.04486e-07
No. of Data Rows : 60044

  Measurements for Transient Analysis

tphl                =  2.56200e-10 targ=  2.31803e-09 trig=  2.06183e-09
tplh                =  1.61109e-09 targ=  2.37966e-08 trig=  2.21855e-08
i_vdd_avg           =  -5.25362e-06 from=  5.00000e-09 to=  1.10000e-07
power_avg_uw        =  9.86383e+00


Total analysis time (seconds) = 0.481091

Total elapsed time (seconds) = 0.558 

Total DRAM available = 16384.000 MB.
DRAM currently available =  250.422 MB.
Maximum ngspice program size =   13.297 MB.
Current ngspice program size =   12.047 MB.

