
Note: No compatibility mode selected!


Circuit: XOR2 seed characterization sample 4111028

Doing analysis at TEMP = 42.428800 and TNOM = 27.000000

Using SPARSE 1.3 as Direct Linear Solver

Initial Transient Solution
--------------------------

Node                                   Voltage
----                                   -------
vdd                                    1.83594
in                                           0
b                                      1.83594
abar                                   1.83594
bbar                               2.06187e-09
out                                    1.83594
vb#branch                                    0
vin#branch                         2.02433e-12
vdd#branch                        -1.13912e-11

 Reference value :  2.64795e-08
 Reference value :  6.15713e-08
 Reference value :  9.86233e-08
No. of Data Rows : 60044

  Measurements for Transient Analysis

tphl                =  2.75520e-10 targ=  2.31266e-09 trig=  2.03714e-09
tplh                =  2.76559e-10 targ=  2.23880e-08 trig=  2.21114e-08
i_vdd_avg           =  -3.51441e-06 from=  5.00000e-09 to=  1.10002e-07
power_avg_uw        =  6.45225e+00


Total analysis time (seconds) = 0.802699

Total elapsed time (seconds) = 0.873 

Total DRAM available = 16384.000 MB.
DRAM currently available =  223.641 MB.
Maximum ngspice program size =   12.578 MB.
Current ngspice program size =   11.750 MB.

