
Note: No compatibility mode selected!


Circuit: NOR2 seed characterization sample 4111047

Doing analysis at TEMP = -2.192860 and TNOM = 27.000000

Using SPARSE 1.3 as Direct Linear Solver

Initial Transient Solution
--------------------------

Node                                   Voltage
----                                   -------
vdd                                    1.64246
in                                           0
out                                    1.64246
pmid                                   1.64246
vin#branch                                   0
vdd#branch                        -3.30857e-12

 Reference value :  4.62319e-08
 Reference value :  1.06210e-07
No. of Data Rows : 60047

  Measurements for Transient Analysis

tphl                =  1.71970e-10 targ=  2.18665e-09 trig=  2.01468e-09
tplh                =  8.23139e-10 targ=  2.28672e-08 trig=  2.20440e-08
i_vdd_avg           =  -5.47324e-06 from=  5.00000e-09 to=  1.10002e-07
power_avg_uw        =  8.98958e+00


Total analysis time (seconds) = 0.479423

Total elapsed time (seconds) = 0.551 

Total DRAM available = 16384.000 MB.
DRAM currently available =  292.656 MB.
Maximum ngspice program size =   12.562 MB.
Current ngspice program size =   11.625 MB.

