
Note: No compatibility mode selected!


Circuit: INV seed characterization sample 4111037

Doing analysis at TEMP = 90.275500 and TNOM = 27.000000

Using SPARSE 1.3 as Direct Linear Solver

Initial Transient Solution
--------------------------

Node                                   Voltage
----                                   -------
vdd                                    1.91929
in                                           0
out                                    1.91929
vin#branch                                   0
vdd#branch                        -2.91676e-12

 Reference value :  7.21251e-08
No. of Data Rows : 60047

  Measurements for Transient Analysis

tphl                =  5.42089e-10 targ=  2.67962e-09 trig=  2.13753e-09
tplh                =  6.16947e-10 targ=  2.30295e-08 trig=  2.24126e-08
i_vdd_avg           =  -2.64313e-06 from=  5.00000e-09 to=  1.10001e-07
power_avg_uw        =  5.07293e+00


Total analysis time (seconds) = 0.296022

Total elapsed time (seconds) = 0.366 

Total DRAM available = 16384.000 MB.
DRAM currently available =  232.938 MB.
Maximum ngspice program size =   12.562 MB.
Current ngspice program size =   11.797 MB.

