
Note: No compatibility mode selected!


Circuit: NOR2 seed characterization sample 4111027

Doing analysis at TEMP = 78.371600 and TNOM = 27.000000

Using SPARSE 1.3 as Direct Linear Solver

Initial Transient Solution
--------------------------

Node                                   Voltage
----                                   -------
vdd                                    1.65088
in                                           0
out                                    1.65088
pmid                                   1.65088
vin#branch                                   0
vdd#branch                         -9.0487e-12

 Reference value :  4.12484e-08
 Reference value :  1.01665e-07
No. of Data Rows : 60044

  Measurements for Transient Analysis

tphl                =  1.10730e-10 targ=  2.19359e-09 trig=  2.08286e-09
tplh                =  5.66962e-10 targ=  2.28155e-08 trig=  2.22486e-08
i_vdd_avg           =  -3.39108e-06 from=  5.00000e-09 to=  1.10000e-07
power_avg_uw        =  5.59827e+00


Total analysis time (seconds) = 0.481341

Total elapsed time (seconds) = 0.569 

Total DRAM available = 16384.000 MB.
DRAM currently available =  223.641 MB.
Maximum ngspice program size =   13.516 MB.
Current ngspice program size =   13.516 MB.

