
Note: No compatibility mode selected!


Circuit: NAND2 seed characterization sample 4111018

Doing analysis at TEMP = 53.204400 and TNOM = 27.000000

Using SPARSE 1.3 as Direct Linear Solver

Initial Transient Solution
--------------------------

Node                                   Voltage
----                                   -------
vdd                                    1.78002
in                                           0
out                                    1.78002
nmid                                 0.0332217
vin#branch                                   0
vdd#branch                        -1.95126e-12

 Reference value :  4.10370e-08
 Reference value :  1.03637e-07
No. of Data Rows : 60047

  Measurements for Transient Analysis

tphl                =  2.77982e-10 targ=  2.38848e-09 trig=  2.11050e-09
tplh                =  1.35449e-10 targ=  2.24670e-08 trig=  2.23315e-08
i_vdd_avg           =  -3.42454e-06 from=  5.00000e-09 to=  1.10001e-07
power_avg_uw        =  6.09575e+00


Total analysis time (seconds) = 0.467614

Total elapsed time (seconds) = 0.560 

Total DRAM available = 16384.000 MB.
DRAM currently available =  223.531 MB.
Maximum ngspice program size =   13.469 MB.
Current ngspice program size =   12.984 MB.

