
Note: No compatibility mode selected!


Circuit: XOR2 seed characterization sample 4111004

Doing analysis at TEMP = 55.811600 and TNOM = 27.000000

Using SPARSE 1.3 as Direct Linear Solver

Initial Transient Solution
--------------------------

Node                                   Voltage
----                                   -------
vdd                                    1.94635
in                                           0
b                                      1.94635
abar                                   1.94635
bbar                               4.92569e-09
out                                    1.94635
vb#branch                                    0
vin#branch                         2.15403e-12
vdd#branch                        -1.20858e-11

 Reference value :  2.27670e-08
 Reference value :  5.66970e-08
 Reference value :  9.27030e-08
No. of Data Rows : 60044

  Measurements for Transient Analysis

tphl                =  6.72648e-10 targ=  2.88666e-09 trig=  2.21402e-09
tplh                =  9.16688e-10 targ=  2.35587e-08 trig=  2.26420e-08
i_vdd_avg           =  -4.14473e-06 from=  5.00000e-09 to=  1.10001e-07
power_avg_uw        =  8.06709e+00


Total analysis time (seconds) = 0.824333

Total elapsed time (seconds) = 0.914 

Total DRAM available = 16384.000 MB.
DRAM currently available =  224.422 MB.
Maximum ngspice program size =   12.812 MB.
Current ngspice program size =   12.188 MB.

