
Note: No compatibility mode selected!


Circuit: NAND2 seed characterization sample 4111034

Doing analysis at TEMP = 19.517900 and TNOM = 27.000000

Using SPARSE 1.3 as Direct Linear Solver

Initial Transient Solution
--------------------------

Node                                   Voltage
----                                   -------
vdd                                    1.64846
in                                           0
out                                    1.64846
nmid                                0.00586345
vin#branch                                   0
vdd#branch                        -1.67513e-12

 Reference value :  4.39229e-08
 Reference value :  1.04649e-07
No. of Data Rows : 60044

  Measurements for Transient Analysis

tphl                =  2.92411e-10 targ=  2.36537e-09 trig=  2.07296e-09
tplh                =  1.51764e-10 targ=  2.23706e-08 trig=  2.22189e-08
i_vdd_avg           =  -2.62749e-06 from=  5.00000e-09 to=  1.10001e-07
power_avg_uw        =  4.33130e+00


Total analysis time (seconds) = 0.475252

Total elapsed time (seconds) = 0.555 

Total DRAM available = 16384.000 MB.
DRAM currently available =  219.547 MB.
Maximum ngspice program size =   13.266 MB.
Current ngspice program size =   11.969 MB.

