
Note: No compatibility mode selected!


Circuit: NOR2 seed characterization sample 4111031

Doing analysis at TEMP = 85.672200 and TNOM = 27.000000

Using SPARSE 1.3 as Direct Linear Solver

Initial Transient Solution
--------------------------

Node                                   Voltage
----                                   -------
vdd                                     1.9692
in                                           0
out                                     1.9692
pmid                                    1.9692
vin#branch                                   0
vdd#branch                        -1.60466e-11

 Reference value :  4.46625e-08
 Reference value :  1.01329e-07
No. of Data Rows : 60044

  Measurements for Transient Analysis

tphl                =  1.41021e-10 targ=  2.32379e-09 trig=  2.18277e-09
tplh                =  3.75658e-10 targ=  2.29240e-08 trig=  2.25483e-08
i_vdd_avg           =  -5.08286e-06 from=  5.00000e-09 to=  1.10000e-07
power_avg_uw        =  1.00092e+01


Total analysis time (seconds) = 0.503041

Total elapsed time (seconds) = 0.582 

Total DRAM available = 16384.000 MB.
DRAM currently available =  226.062 MB.
Maximum ngspice program size =   12.562 MB.
Current ngspice program size =   12.172 MB.

