
Note: No compatibility mode selected!


Circuit: NAND2 seed characterization sample 4111030

Doing analysis at TEMP = 68.887500 and TNOM = 27.000000

Using SPARSE 1.3 as Direct Linear Solver

Initial Transient Solution
--------------------------

Node                                   Voltage
----                                   -------
vdd                                    1.69722
in                                           0
out                                    1.69722
nmid                                 0.0251425
vin#branch                                   0
vdd#branch                        -1.79792e-12

 Reference value :  4.46673e-08
 Reference value :  1.02554e-07
No. of Data Rows : 60044

  Measurements for Transient Analysis

tphl                =  1.40495e-09 targ=  3.42608e-09 trig=  2.02113e-09
tplh                =  4.23029e-10 targ=  2.24864e-08 trig=  2.20634e-08
i_vdd_avg           =  -2.80760e-06 from=  5.00000e-09 to=  1.10002e-07
power_avg_uw        =  4.76511e+00


Total analysis time (seconds) = 0.494194

Total elapsed time (seconds) = 0.577 

Total DRAM available = 16384.000 MB.
DRAM currently available =  226.062 MB.
Maximum ngspice program size =   12.562 MB.
Current ngspice program size =   12.125 MB.

