
Note: No compatibility mode selected!


Circuit: INV seed characterization sample 4111001

Doing analysis at TEMP = 23.273800 and TNOM = 27.000000

Using SPARSE 1.3 as Direct Linear Solver

Initial Transient Solution
--------------------------

Node                                   Voltage
----                                   -------
vdd                                    1.80396
in                                           0
out                                    1.80396
vin#branch                                   0
vdd#branch                         -1.8604e-12

 Reference value :  6.99602e-08
No. of Data Rows : 60041

  Measurements for Transient Analysis

tphl                =  2.16526e-10 targ=  2.38182e-09 trig=  2.16529e-09
tplh                =  3.30652e-10 targ=  2.28265e-08 trig=  2.24959e-08
i_vdd_avg           =  -4.39278e-06 from=  5.00000e-09 to=  1.10000e-07
power_avg_uw        =  7.92439e+00


Total analysis time (seconds) = 0.299306

Total elapsed time (seconds) = 0.375 

Total DRAM available = 16384.000 MB.
DRAM currently available =  224.422 MB.
Maximum ngspice program size =   12.844 MB.
Current ngspice program size =   12.266 MB.

