
Note: No compatibility mode selected!


Circuit: INV seed characterization sample 4111033

Doing analysis at TEMP = 32.577500 and TNOM = 27.000000

Using SPARSE 1.3 as Direct Linear Solver

Initial Transient Solution
--------------------------

Node                                   Voltage
----                                   -------
vdd                                    1.68779
in                                           0
out                                    1.68779
vin#branch                                   0
vdd#branch                        -1.80837e-12

 Reference value :  7.15322e-08
No. of Data Rows : 60041

  Measurements for Transient Analysis

tphl                =  1.70486e-10 targ=  2.20978e-09 trig=  2.03929e-09
tplh                =  2.35005e-10 targ=  2.23529e-08 trig=  2.21179e-08
i_vdd_avg           =  -4.66973e-06 from=  5.00000e-09 to=  1.10000e-07
power_avg_uw        =  7.88152e+00


Total analysis time (seconds) = 0.30075

Total elapsed time (seconds) = 0.373 

Total DRAM available = 16384.000 MB.
DRAM currently available =  219.547 MB.
Maximum ngspice program size =   12.594 MB.
Current ngspice program size =   11.688 MB.

