
Note: No compatibility mode selected!


Circuit: INV seed characterization sample 4111017

Doing analysis at TEMP = -17.193500 and TNOM = 27.000000

Using SPARSE 1.3 as Direct Linear Solver

Initial Transient Solution
--------------------------

Node                                   Voltage
----                                   -------
vdd                                    1.87765
in                                           0
out                                    1.87765
vin#branch                                   0
vdd#branch                        -1.88798e-12

 Reference value :  7.49874e-08
No. of Data Rows : 60047

  Measurements for Transient Analysis

tphl                =  4.00590e-10 targ=  2.64018e-09 trig=  2.23959e-09
tplh                =  4.20143e-10 targ=  2.31389e-08 trig=  2.27188e-08
i_vdd_avg           =  -5.61072e-06 from=  5.00000e-09 to=  1.10001e-07
power_avg_uw        =  1.05350e+01


Total analysis time (seconds) = 0.285333

Total elapsed time (seconds) = 0.353 

Total DRAM available = 16384.000 MB.
DRAM currently available =  223.531 MB.
Maximum ngspice program size =   12.594 MB.
Current ngspice program size =   11.688 MB.

