
Note: Compatibility modes selected: hs a


Circuit: SKY130 library cell oai21_4 A1_to_Y__A2=0,B1=1

option SCALE: Scale is set to 1e-06 for instance and model parameters
Doing analysis at TEMP = 26.866047 and TNOM = 27.000000

Using KLU as Direct Linear Solver
 Reference value :  9.52640e-09
 Reference value :  4.19371e-08
 Reference value :  7.05771e-08
 Reference value :  1.01202e-07
 Reference value :  1.29852e-07
 Reference value :  1.58552e-07
 Reference value :  1.88223e-07
 Reference value :  2.15792e-07
 Reference value :  2.45582e-07
 Reference value :  2.73842e-07
 Reference value :  3.03842e-07
 Reference value :  3.34467e-07
No. of Data Rows : 68032

  Measurements for Transient Analysis

tphl                =  2.58362e-10 targ=  2.67007e-08 trig=  2.64423e-08
tplh                =  1.28910e-09 targ=  1.02616e-07 trig=  1.01327e-07
i_vdd_avg           =  -1.83273e-06 from=  1.00000e-08 to=  3.30002e-07
power_avg_uw        =  3.25040e+00


Total analysis time (seconds) = 2.92555

Total elapsed time (seconds) = 3.090 

Total DRAM available = 16384.000 MB.
DRAM currently available =  103.531 MB.
Maximum ngspice program size =   27.078 MB.
Current ngspice program size =   27.078 MB.

