
Note: Compatibility modes selected: hs a


Circuit: SKY130 library cell mux2_4 A0_to_X__A1=0,S=0

option SCALE: Scale is set to 1e-06 for instance and model parameters
Doing analysis at TEMP = 118.145510 and TNOM = 27.000000

Using KLU as Direct Linear Solver
 Reference value :  1.20214e-08
 Reference value :  4.77661e-08
 Reference value :  8.79311e-08
 Reference value :  1.30625e-07
 Reference value :  1.65930e-07
 Reference value :  2.08051e-07
 Reference value :  2.45281e-07
 Reference value :  2.83790e-07
 Reference value :  3.19865e-07
No. of Data Rows : 68034

  Measurements for Transient Analysis

tplh                =  -1.81808e-10 targ=  2.93750e-08 trig=  2.95568e-08
tphl                =  1.26489e-09 targ=  1.11935e-07 trig=  1.10670e-07
i_vdd_avg           =  -1.41257e-06 from=  1.00000e-08 to=  3.30005e-07
power_avg_uw        =  2.49031e+00


Total analysis time (seconds) = 2.26224

Total elapsed time (seconds) = 2.447 

Total DRAM available = 16384.000 MB.
DRAM currently available =   98.781 MB.
Maximum ngspice program size =   27.109 MB.
Current ngspice program size =   27.109 MB.

