
Note: Compatibility modes selected: hs a


Circuit: SKY130 library cell xor2_1 A_to_X__B=0

option SCALE: Scale is set to 1e-06 for instance and model parameters
Doing analysis at TEMP = 14.334805 and TNOM = 27.000000

Using KLU as Direct Linear Solver
 Reference value :  2.05864e-08
 Reference value :  8.93460e-08
 Reference value :  1.53700e-07
 Reference value :  2.23366e-07
 Reference value :  2.89125e-07
No. of Data Rows : 68034

  Measurements for Transient Analysis

tplh                =  -1.71720e-10 targ=  2.62775e-08 trig=  2.64493e-08
tphl                =  6.49978e-10 targ=  1.01998e-07 trig=  1.01348e-07
i_vdd_avg           =  -2.47471e-07 from=  1.00000e-08 to=  3.30005e-07
power_avg_uw        =  4.47837e-01


Total analysis time (seconds) = 1.32464

Total elapsed time (seconds) = 1.479 

Total DRAM available = 16384.000 MB.
DRAM currently available =   92.188 MB.
Maximum ngspice program size =   26.469 MB.
Current ngspice program size =   26.469 MB.

