
Note: Compatibility modes selected: hs a


Circuit: SKY130 library cell oai21_1 A1_to_Y__A2=0,B1=1

option SCALE: Scale is set to 1e-06 for instance and model parameters
Doing analysis at TEMP = 41.306948 and TNOM = 27.000000

Using KLU as Direct Linear Solver
 Reference value :  3.18863e-08
 Reference value :  1.22345e-07
 Reference value :  2.19736e-07
 Reference value :  3.17140e-07
No. of Data Rows : 68032

  Measurements for Transient Analysis

tphl                =  4.84276e-10 targ=  2.54062e-08 trig=  2.49219e-08
tplh                =  1.12439e-09 targ=  9.78901e-08 trig=  9.67657e-08
i_vdd_avg           =  -7.34693e-07 from=  1.00000e-08 to=  3.30000e-07
power_avg_uw        =  1.27275e+00


Total analysis time (seconds) = 0.925798

Total elapsed time (seconds) = 1.092 

Total DRAM available = 16384.000 MB.
DRAM currently available =  132.750 MB.
Maximum ngspice program size =   24.281 MB.
Current ngspice program size =   24.281 MB.

