
Note: Compatibility modes selected: hs a


Circuit: SKY130 library cell nor2_1 A_to_Y__B=0

option SCALE: Scale is set to 1e-06 for instance and model parameters
Doing analysis at TEMP = -19.168533 and TNOM = 27.000000

Using KLU as Direct Linear Solver
 Reference value :  4.87241e-08
 Reference value :  2.04524e-07
No. of Data Rows : 68030

  Measurements for Transient Analysis

tphl                =  5.90387e-10 targ=  2.51212e-08 trig=  2.45308e-08
tplh                =  2.29962e-09 targ=  9.78920e-08 trig=  9.55924e-08
i_vdd_avg           =  -1.81724e-06 from=  1.00000e-08 to=  3.30001e-07
power_avg_uw        =  3.13037e+00


Total analysis time (seconds) = 0.576949

Total elapsed time (seconds) = 0.739 

Total DRAM available = 16384.000 MB.
DRAM currently available =   89.656 MB.
Maximum ngspice program size =   26.516 MB.
Current ngspice program size =   26.516 MB.

