
Note: Compatibility modes selected: hs a


Circuit: SKY130 library cell aoi21_1 A1_to_Y__A2=1,B1=0

option SCALE: Scale is set to 1e-06 for instance and model parameters
Doing analysis at TEMP = 122.877550 and TNOM = 27.000000

Using KLU as Direct Linear Solver
 Reference value :  4.71988e-08
 Reference value :  1.49260e-07
 Reference value :  2.57634e-07
No. of Data Rows : 68030

  Measurements for Transient Analysis

tphl                =  1.34501e-09 targ=  2.85982e-08 trig=  2.72532e-08
tplh                =  2.55777e-09 targ=  1.06317e-07 trig=  1.03759e-07
i_vdd_avg           =  -1.47423e-06 from=  1.00000e-08 to=  3.30000e-07
power_avg_uw        =  2.43441e+00


Total analysis time (seconds) = 0.863056

Total elapsed time (seconds) = 1.017 

Total DRAM available = 16384.000 MB.
DRAM currently available =   87.750 MB.
Maximum ngspice program size =   22.297 MB.
Current ngspice program size =   22.297 MB.

