
Note: Compatibility modes selected: hs a


Circuit: SKY130 library cell inv_1 A_to_Y

option SCALE: Scale is set to 1e-06 for instance and model parameters
Doing analysis at TEMP = 26.582493 and TNOM = 27.000000

Using KLU as Direct Linear Solver
 Reference value :  7.24879e-08
 Reference value :  3.13818e-07
No. of Data Rows : 68032

  Measurements for Transient Analysis

tphl                =  4.11336e-10 targ=  2.52940e-08 trig=  2.48827e-08
tplh                =  8.71920e-10 targ=  9.75200e-08 trig=  9.66480e-08
i_vdd_avg           =  -1.01121e-06 from=  1.00000e-08 to=  3.30003e-07
power_avg_uw        =  1.87782e+00


Total analysis time (seconds) = 0.370007

Total elapsed time (seconds) = 0.532 

Total DRAM available = 16384.000 MB.
DRAM currently available =   90.719 MB.
Maximum ngspice program size =   27.703 MB.
Current ngspice program size =   27.703 MB.

