
Note: Compatibility modes selected: hs a


Circuit: SKY130 library cell aoi21_4 A1_to_Y__A2=1,B1=0

option SCALE: Scale is set to 1e-06 for instance and model parameters
Doing analysis at TEMP = 124.364080 and TNOM = 27.000000

Using KLU as Direct Linear Solver
 Reference value :  8.29140e-09
 Reference value :  3.79808e-08
 Reference value :  6.56608e-08
 Reference value :  9.40058e-08
 Reference value :  1.24209e-07
 Reference value :  1.56544e-07
 Reference value :  1.83204e-07
 Reference value :  2.13841e-07
 Reference value :  2.43791e-07
 Reference value :  2.73554e-07
 Reference value :  3.02479e-07
 Reference value :  3.31174e-07
No. of Data Rows : 68034

  Measurements for Transient Analysis

tphl                =  -1.04158e-10 targ=  2.60125e-08 trig=  2.61167e-08
tplh                =  3.35226e-10 targ=  1.00685e-07 trig=  1.00350e-07
i_vdd_avg           =  -9.42067e-07 from=  1.00000e-08 to=  3.30004e-07
power_avg_uw        =  1.60356e+00


Total analysis time (seconds) = 2.97663

Total elapsed time (seconds) = 3.161 

Total DRAM available = 16384.000 MB.
DRAM currently available =   85.359 MB.
Maximum ngspice program size =   28.266 MB.
Current ngspice program size =   28.266 MB.

