
Note: Compatibility modes selected: hs a


Circuit: SKY130 library cell nor2_1 A_to_Y__B=0

option SCALE: Scale is set to 1e-06 for instance and model parameters
Doing analysis at TEMP = 43.390941 and TNOM = 27.000000

Using KLU as Direct Linear Solver
 Reference value :  5.13226e-08
 Reference value :  2.02903e-07
 Reference value :  3.37398e-07
No. of Data Rows : 68032

  Measurements for Transient Analysis

tphl                =  8.72874e-10 targ=  2.60754e-08 trig=  2.52026e-08
tplh                =  2.46660e-09 targ=  1.00074e-07 trig=  9.76077e-08
i_vdd_avg           =  -2.16854e-06 from=  1.00000e-08 to=  3.30003e-07
power_avg_uw        =  3.85736e+00


Total analysis time (seconds) = 0.598522

Total elapsed time (seconds) = 0.755 

Total DRAM available = 16384.000 MB.
DRAM currently available =   93.062 MB.
Maximum ngspice program size =   26.344 MB.
Current ngspice program size =   26.344 MB.

