Note: Starting dynamic gmin stepping
Note: Dynamic gmin stepping completed

Note: Compatibility modes selected: hs a


Circuit: SKY130 library cell mux2_1 A0_to_X__A1=0,S=0

option SCALE: Scale is set to 1e-06 for instance and model parameters
Doing analysis at TEMP = 31.427725 and TNOM = 27.000000

Using KLU as Direct Linear Solver
 Reference value :  1.42914e-08
 Reference value :  7.12790e-08
 Reference value :  1.27261e-07
 Reference value :  1.82966e-07
 Reference value :  2.39794e-07
 Reference value :  2.93901e-07
No. of Data Rows : 68030

  Measurements for Transient Analysis

tplh                =  5.79036e-10 targ=  2.57923e-08 trig=  2.52133e-08
tphl                =  7.52966e-10 targ=  9.83927e-08 trig=  9.76398e-08
i_vdd_avg           =  -1.14794e-06 from=  1.00000e-08 to=  3.30001e-07
power_avg_uw        =  2.02327e+00


Total analysis time (seconds) = 1.55904

Total elapsed time (seconds) = 1.726 

Total DRAM available = 16384.000 MB.
DRAM currently available =   80.938 MB.
Maximum ngspice program size =   27.406 MB.
Current ngspice program size =   27.406 MB.

