
Note: Compatibility modes selected: hs a


Circuit: SKY130 library cell nor2_4 A_to_Y__B=0

option SCALE: Scale is set to 1e-06 for instance and model parameters
Doing analysis at TEMP = -36.293960 and TNOM = 27.000000

Using KLU as Direct Linear Solver
 Reference value :  1.43564e-08
 Reference value :  5.82880e-08
 Reference value :  1.02578e-07
 Reference value :  1.47003e-07
 Reference value :  1.92273e-07
 Reference value :  2.36548e-07
 Reference value :  2.79723e-07
 Reference value :  3.21088e-07
No. of Data Rows : 68032

  Measurements for Transient Analysis

tphl                =  -5.08397e-10 targ=  2.88718e-08 trig=  2.93802e-08
tplh                =  1.93412e-09 targ=  1.12075e-07 trig=  1.10141e-07
i_vdd_avg           =  -1.87578e-06 from=  1.00000e-08 to=  3.30003e-07
power_avg_uw        =  3.56200e+00


Total analysis time (seconds) = 1.98472

Total elapsed time (seconds) = 2.144 

Total DRAM available = 16384.000 MB.
DRAM currently available =  106.781 MB.
Maximum ngspice program size =   27.547 MB.
Current ngspice program size =   27.547 MB.

