
Note: Compatibility modes selected: hs a


Circuit: SKY130 library cell nand3_1 A_to_Y__B=1,C=1

option SCALE: Scale is set to 1e-06 for instance and model parameters
Doing analysis at TEMP = 17.678624 and TNOM = 27.000000

Using KLU as Direct Linear Solver
 Reference value :  3.61981e-08
 Reference value :  1.33874e-07
 Reference value :  2.39653e-07
No. of Data Rows : 68032

  Measurements for Transient Analysis

tphl                =  5.24271e-10 targ=  2.52496e-08 trig=  2.47253e-08
tplh                =  7.59941e-10 targ=  9.69358e-08 trig=  9.61759e-08
i_vdd_avg           =  -6.75186e-07 from=  1.00000e-08 to=  3.30004e-07
power_avg_uw        =  1.15355e+00


Total analysis time (seconds) = 0.859317

Total elapsed time (seconds) = 1.022 

Total DRAM available = 16384.000 MB.
DRAM currently available =   68.719 MB.
Maximum ngspice program size =   27.016 MB.
Current ngspice program size =   27.016 MB.

