
Note: Compatibility modes selected: hs a


Circuit: SKY130 library cell nor2_4 A_to_Y__B=0

option SCALE: Scale is set to 1e-06 for instance and model parameters
Doing analysis at TEMP = 9.371994 and TNOM = 27.000000

Using KLU as Direct Linear Solver
 Reference value :  1.09464e-08
 Reference value :  4.89573e-08
 Reference value :  8.88223e-08
 Reference value :  1.28347e-07
 Reference value :  1.71622e-07
 Reference value :  2.11977e-07
 Reference value :  2.49267e-07
 Reference value :  2.86732e-07
 Reference value :  3.26137e-07
No. of Data Rows : 68032

  Measurements for Transient Analysis

tphl                =  -7.36040e-11 targ=  2.54963e-08 trig=  2.55699e-08
tplh                =  5.62049e-10 targ=  9.92717e-08 trig=  9.87096e-08
i_vdd_avg           =  -5.07183e-07 from=  1.00000e-08 to=  3.30002e-07
power_avg_uw        =  8.92176e-01


Total analysis time (seconds) = 2.21396

Total elapsed time (seconds) = 2.394 

Total DRAM available = 16384.000 MB.
DRAM currently available =  102.094 MB.
Maximum ngspice program size =   26.734 MB.
Current ngspice program size =   26.734 MB.

