
Note: Compatibility modes selected: hs a


Circuit: SKY130 library cell nand2_4 A_to_Y__B=1

option SCALE: Scale is set to 1e-06 for instance and model parameters
Doing analysis at TEMP = -25.124155 and TNOM = 27.000000

Using KLU as Direct Linear Solver
 Reference value :  1.25364e-08
 Reference value :  5.34699e-08
 Reference value :  9.49299e-08
 Reference value :  1.40762e-07
 Reference value :  1.85268e-07
 Reference value :  2.32100e-07
 Reference value :  2.78317e-07
 Reference value :  3.20592e-07
No. of Data Rows : 68030

  Measurements for Transient Analysis

tphl                =  3.76459e-10 targ=  2.61327e-08 trig=  2.57562e-08
tplh                =  1.16232e-09 targ=  1.00431e-07 trig=  9.92686e-08
i_vdd_avg           =  -1.77122e-06 from=  1.00000e-08 to=  3.30002e-07
power_avg_uw        =  3.01350e+00


Total analysis time (seconds) = 1.99913

Total elapsed time (seconds) = 2.158 

Total DRAM available = 16384.000 MB.
DRAM currently available =   91.516 MB.
Maximum ngspice program size =   28.234 MB.
Current ngspice program size =   28.234 MB.

