
Note: Compatibility modes selected: hs a


Circuit: SKY130 library cell nor2_1 A_to_Y__B=0

option SCALE: Scale is set to 1e-06 for instance and model parameters
Doing analysis at TEMP = 119.957760 and TNOM = 27.000000

Using KLU as Direct Linear Solver
 Reference value :  5.31997e-08
 Reference value :  2.06705e-07
No. of Data Rows : 68030

  Measurements for Transient Analysis

tphl                =  -2.84076e-10 targ=  2.89570e-08 trig=  2.92411e-08
tplh                =  1.45976e-09 targ=  1.11183e-07 trig=  1.09723e-07
i_vdd_avg           =  -1.27920e-06 from=  1.00000e-08 to=  3.30002e-07
power_avg_uw        =  2.45780e+00


Total analysis time (seconds) = 0.573897

Total elapsed time (seconds) = 0.727 

Total DRAM available = 16384.000 MB.
DRAM currently available =  103.781 MB.
Maximum ngspice program size =   26.422 MB.
Current ngspice program size =   26.422 MB.

