
Note: Compatibility modes selected: hs a


Circuit: SKY130 library cell aoi21_4 A1_to_Y__A2=1,B1=0

option SCALE: Scale is set to 1e-06 for instance and model parameters
Doing analysis at TEMP = 38.501978 and TNOM = 27.000000

Using KLU as Direct Linear Solver
 Reference value :  1.02614e-08
 Reference value :  4.06700e-08
 Reference value :  6.84400e-08
 Reference value :  9.79926e-08
 Reference value :  1.26993e-07
 Reference value :  1.57018e-07
 Reference value :  1.86170e-07
 Reference value :  2.16875e-07
 Reference value :  2.45485e-07
 Reference value :  2.72203e-07
 Reference value :  3.00548e-07
 Reference value :  3.29498e-07
No. of Data Rows : 68034

  Measurements for Transient Analysis

tphl                =  2.81821e-10 targ=  2.46081e-08 trig=  2.43263e-08
tplh                =  6.35074e-10 targ=  9.56139e-08 trig=  9.49788e-08
i_vdd_avg           =  -2.20277e-06 from=  1.00000e-08 to=  3.30003e-07
power_avg_uw        =  3.93752e+00


Total analysis time (seconds) = 2.9712

Total elapsed time (seconds) = 3.127 

Total DRAM available = 16384.000 MB.
DRAM currently available =   89.203 MB.
Maximum ngspice program size =   27.047 MB.
Current ngspice program size =   27.047 MB.

