
Note: Compatibility modes selected: hs a


Circuit: SKY130 library cell nand3_4 A_to_Y__B=1,C=1

option SCALE: Scale is set to 1e-06 for instance and model parameters
Doing analysis at TEMP = 55.551940 and TNOM = 27.000000

Using KLU as Direct Linear Solver
 Reference value :  9.04140e-09
 Reference value :  3.99968e-08
 Reference value :  6.97718e-08
 Reference value :  9.91211e-08
 Reference value :  1.28126e-07
 Reference value :  1.57491e-07
 Reference value :  1.87207e-07
 Reference value :  2.16247e-07
 Reference value :  2.47177e-07
 Reference value :  2.75006e-07
 Reference value :  3.04861e-07
 Reference value :  3.32511e-07
No. of Data Rows : 68032

  Measurements for Transient Analysis

tphl                =  3.44472e-10 targ=  2.49666e-08 trig=  2.46222e-08
tplh                =  4.98049e-10 targ=  9.63645e-08 trig=  9.58665e-08
i_vdd_avg           =  -1.89168e-06 from=  1.00000e-08 to=  3.30001e-07
power_avg_uw        =  3.43891e+00


Total analysis time (seconds) = 2.92454

Total elapsed time (seconds) = 3.089 

Total DRAM available = 16384.000 MB.
DRAM currently available =   88.719 MB.
Maximum ngspice program size =   26.500 MB.
Current ngspice program size =   26.500 MB.

