
Note: Compatibility modes selected: hs a


Circuit: SKY130 library cell aoi21_4 A1_to_Y__A2=1,B1=0

option SCALE: Scale is set to 1e-06 for instance and model parameters
Doing analysis at TEMP = -7.695548 and TNOM = 27.000000

Using KLU as Direct Linear Solver
 Reference value :  9.09640e-09
 Reference value :  3.72606e-08
 Reference value :  6.66956e-08
 Reference value :  9.36656e-08
 Reference value :  1.22774e-07
 Reference value :  1.53159e-07
 Reference value :  1.80664e-07
 Reference value :  2.11686e-07
 Reference value :  2.40406e-07
 Reference value :  2.71129e-07
 Reference value :  2.98324e-07
 Reference value :  3.26629e-07
No. of Data Rows : 68034

  Measurements for Transient Analysis

tphl                =  -2.59653e-10 targ=  2.70344e-08 trig=  2.72940e-08
tplh                =  1.02746e-09 targ=  1.04910e-07 trig=  1.03882e-07
i_vdd_avg           =  -1.01772e-06 from=  1.00000e-08 to=  3.30004e-07
power_avg_uw        =  1.88207e+00


Total analysis time (seconds) = 3.00792

Total elapsed time (seconds) = 3.179 

Total DRAM available = 16384.000 MB.
DRAM currently available =  116.047 MB.
Maximum ngspice program size =   28.953 MB.
Current ngspice program size =   28.953 MB.

