
Note: Compatibility modes selected: hs a


Circuit: SKY130 library cell inv_4 A_to_Y

option SCALE: Scale is set to 1e-06 for instance and model parameters
Doing analysis at TEMP = -39.544353 and TNOM = 27.000000

Using KLU as Direct Linear Solver
 Reference value :  2.67075e-08
 Reference value :  1.08057e-07
 Reference value :  1.93232e-07
 Reference value :  2.75621e-07
No. of Data Rows : 68032

  Measurements for Transient Analysis

tphl                =  -2.90717e-10 targ=  2.72414e-08 trig=  2.75321e-08
tplh                =  1.15545e-09 targ=  1.05752e-07 trig=  1.04596e-07
i_vdd_avg           =  -1.11615e-06 from=  1.00000e-08 to=  3.30001e-07
power_avg_uw        =  2.04966e+00


Total analysis time (seconds) = 1.06211

Total elapsed time (seconds) = 1.218 

Total DRAM available = 16384.000 MB.
DRAM currently available =  101.703 MB.
Maximum ngspice program size =   27.391 MB.
Current ngspice program size =   27.391 MB.

