
Note: Compatibility modes selected: hs a


Circuit: SKY130 library cell oai21_1 A1_to_Y__A2=0,B1=1

option SCALE: Scale is set to 1e-06 for instance and model parameters
Doing analysis at TEMP = 48.156206 and TNOM = 27.000000

Using KLU as Direct Linear Solver
 Reference value :  3.53160e-08
 Reference value :  1.35899e-07
 Reference value :  2.34166e-07
 Reference value :  3.37914e-07
No. of Data Rows : 68034

  Measurements for Transient Analysis

tphl                =  6.56218e-10 targ=  2.62905e-08 trig=  2.56342e-08
tplh                =  1.59069e-09 targ=  1.00493e-07 trig=  9.89027e-08
i_vdd_avg           =  -1.38442e-06 from=  1.00000e-08 to=  3.30004e-07
power_avg_uw        =  2.67079e+00


Total analysis time (seconds) = 0.864658

Total elapsed time (seconds) = 1.022 

Total DRAM available = 16384.000 MB.
DRAM currently available =   91.438 MB.
Maximum ngspice program size =   26.453 MB.
Current ngspice program size =   26.453 MB.

