
Note: Compatibility modes selected: hs a


Circuit: SKY130 library cell xor2_1 A_to_X__B=0

option SCALE: Scale is set to 1e-06 for instance and model parameters
Doing analysis at TEMP = 25.487360 and TNOM = 27.000000

Using KLU as Direct Linear Solver
 Reference value :  1.89564e-08
 Reference value :  8.54979e-08
 Reference value :  1.56693e-07
 Reference value :  2.30483e-07
 Reference value :  3.01143e-07
No. of Data Rows : 68032

  Measurements for Transient Analysis

tplh                =  8.35196e-10 targ=  2.81254e-08 trig=  2.72902e-08
tphl                =  1.16581e-09 targ=  1.05036e-07 trig=  1.03871e-07
i_vdd_avg           =  -1.93992e-06 from=  1.00000e-08 to=  3.30003e-07
power_avg_uw        =  3.66782e+00


Total analysis time (seconds) = 1.21967

Total elapsed time (seconds) = 1.382 

Total DRAM available = 16384.000 MB.
DRAM currently available =  163.844 MB.
Maximum ngspice program size =   26.156 MB.
Current ngspice program size =   26.156 MB.

