
Note: Compatibility modes selected: hs a


Circuit: SKY130 library cell nand2_1 A_to_Y__B=1

option SCALE: Scale is set to 1e-06 for instance and model parameters
Doing analysis at TEMP = 33.765227 and TNOM = 27.000000

Using KLU as Direct Linear Solver
 Reference value :  5.19928e-08
 Reference value :  2.02043e-07
No. of Data Rows : 68032

  Measurements for Transient Analysis

tphl                =  -4.63339e-11 targ=  2.72138e-08 trig=  2.72602e-08
tplh                =  9.88358e-10 targ=  1.04769e-07 trig=  1.03780e-07
i_vdd_avg           =  -4.63476e-07 from=  1.00000e-08 to=  3.30003e-07
power_avg_uw        =  8.49785e-01


Total analysis time (seconds) = 0.599056

Total elapsed time (seconds) = 0.735 

Total DRAM available = 16384.000 MB.
DRAM currently available =  132.875 MB.
Maximum ngspice program size =   24.125 MB.
Current ngspice program size =   24.125 MB.

