
Note: Compatibility modes selected: hs a


Circuit: SKY130 library cell mux2_4 A0_to_X__A1=0,S=0

option SCALE: Scale is set to 1e-06 for instance and model parameters
Doing analysis at TEMP = 79.165135 and TNOM = 27.000000

Using KLU as Direct Linear Solver
 Reference value :  1.24514e-08
 Reference value :  4.72514e-08
 Reference value :  8.77114e-08
 Reference value :  1.22690e-07
 Reference value :  1.63215e-07
 Reference value :  2.02751e-07
 Reference value :  2.41801e-07
 Reference value :  2.77300e-07
 Reference value :  3.11245e-07
No. of Data Rows : 68032

  Measurements for Transient Analysis

tplh                =  -1.42446e-10 targ=  2.78320e-08 trig=  2.79744e-08
tphl                =  1.14006e-09 targ=  1.07063e-07 trig=  1.05923e-07
i_vdd_avg           =  -1.95274e-06 from=  1.00000e-08 to=  3.30000e-07
power_avg_uw        =  3.84741e+00


Total analysis time (seconds) = 2.32263

Total elapsed time (seconds) = 2.487 

Total DRAM available = 16384.000 MB.
DRAM currently available =  132.750 MB.
Maximum ngspice program size =   27.219 MB.
Current ngspice program size =   27.219 MB.

