
Note: Compatibility modes selected: hs a


Circuit: SKY130 library cell oai21_4 A1_to_Y__A2=0,B1=1

option SCALE: Scale is set to 1e-06 for instance and model parameters
Doing analysis at TEMP = 2.355305 and TNOM = 27.000000

Using KLU as Direct Linear Solver
 Reference value :  6.18640e-09
 Reference value :  3.19760e-08
 Reference value :  5.74710e-08
 Reference value :  8.43510e-08
 Reference value :  1.10124e-07
 Reference value :  1.35649e-07
 Reference value :  1.60959e-07
 Reference value :  1.87666e-07
 Reference value :  2.13596e-07
 Reference value :  2.42006e-07
 Reference value :  2.70594e-07
 Reference value :  3.00359e-07
 Reference value :  3.29339e-07
No. of Data Rows : 68034

  Measurements for Transient Analysis

tphl                =  -1.03273e-10 targ=  2.56085e-08 trig=  2.57117e-08
tplh                =  5.59226e-10 targ=  9.96945e-08 trig=  9.91352e-08
i_vdd_avg           =  -5.21206e-07 from=  1.00000e-08 to=  3.30004e-07
power_avg_uw        =  9.48245e-01


Total analysis time (seconds) = 3.21975

Total elapsed time (seconds) = 3.404 

Total DRAM available = 16384.000 MB.
DRAM currently available =   97.125 MB.
Maximum ngspice program size =   27.375 MB.
Current ngspice program size =   27.375 MB.

