
Note: Compatibility modes selected: hs a


Circuit: SKY130 library cell aoi21_1 A1_to_Y__A2=1,B1=0

option SCALE: Scale is set to 1e-06 for instance and model parameters
Doing analysis at TEMP = -25.692083 and TNOM = 27.000000

Using KLU as Direct Linear Solver
 Reference value :  3.12861e-08
 Reference value :  1.29945e-07
 Reference value :  2.41276e-07
No. of Data Rows : 68034

  Measurements for Transient Analysis

tphl                =  2.76240e-10 targ=  2.43705e-08 trig=  2.40943e-08
tplh                =  9.22497e-10 targ=  9.52053e-08 trig=  9.42828e-08
i_vdd_avg           =  -8.68558e-07 from=  1.00000e-08 to=  3.30005e-07
power_avg_uw        =  1.54987e+00


Total analysis time (seconds) = 0.837849

Total elapsed time (seconds) = 0.996 

Total DRAM available = 16384.000 MB.
DRAM currently available =   92.188 MB.
Maximum ngspice program size =   25.219 MB.
Current ngspice program size =   25.219 MB.

