
Note: Compatibility modes selected: hs a


Circuit: SKY130 library cell aoi21_1 A1_to_Y__A2=1,B1=0

option SCALE: Scale is set to 1e-06 for instance and model parameters
Doing analysis at TEMP = 61.972912 and TNOM = 27.000000

Using KLU as Direct Linear Solver
 Reference value :  3.63490e-08
 Reference value :  1.38170e-07
 Reference value :  2.39594e-07
No. of Data Rows : 68030

  Measurements for Transient Analysis

tphl                =  1.40776e-09 targ=  3.05585e-08 trig=  2.91507e-08
tplh                =  3.65744e-09 targ=  1.13110e-07 trig=  1.09452e-07
i_vdd_avg           =  -2.34841e-06 from=  1.00000e-08 to=  3.30000e-07
power_avg_uw        =  4.32215e+00


Total analysis time (seconds) = 0.848882

Total elapsed time (seconds) = 1.010 

Total DRAM available = 16384.000 MB.
DRAM currently available =   92.078 MB.
Maximum ngspice program size =   24.906 MB.
Current ngspice program size =   24.906 MB.

