
Note: Compatibility modes selected: hs a


Circuit: SKY130 library cell nor2_4 A_to_Y__B=0

option SCALE: Scale is set to 1e-06 for instance and model parameters
Doing analysis at TEMP = 39.311680 and TNOM = 27.000000

Using KLU as Direct Linear Solver
 Reference value :  1.35164e-08
 Reference value :  5.29930e-08
 Reference value :  9.88086e-08
 Reference value :  1.42589e-07
 Reference value :  1.88908e-07
 Reference value :  2.34758e-07
 Reference value :  2.76689e-07
 Reference value :  3.20979e-07
No. of Data Rows : 68032

  Measurements for Transient Analysis

tphl                =  1.04358e-10 targ=  2.41646e-08 trig=  2.40603e-08
tplh                =  3.44356e-10 targ=  9.45252e-08 trig=  9.41808e-08
i_vdd_avg           =  -1.78970e-06 from=  1.00000e-08 to=  3.30004e-07
power_avg_uw        =  3.47561e+00


Total analysis time (seconds) = 1.94837

Total elapsed time (seconds) = 2.120 

Total DRAM available = 16384.000 MB.
DRAM currently available =   88.719 MB.
Maximum ngspice program size =   26.172 MB.
Current ngspice program size =   26.172 MB.

