
Note: Compatibility modes selected: hs a


Circuit: SKY130 library cell oai21_1 A1_to_Y__A2=0,B1=1

option SCALE: Scale is set to 1e-06 for instance and model parameters
Doing analysis at TEMP = -22.895766 and TNOM = 27.000000

Using KLU as Direct Linear Solver
 Reference value :  2.75575e-08
 Reference value :  1.31402e-07
 Reference value :  2.31870e-07
 Reference value :  3.25307e-07
No. of Data Rows : 68030

  Measurements for Transient Analysis

tphl                =  1.15824e-09 targ=  2.75769e-08 trig=  2.64187e-08
tplh                =  3.11366e-09 targ=  1.04370e-07 trig=  1.01256e-07
i_vdd_avg           =  -2.18878e-06 from=  1.00000e-08 to=  3.30002e-07
power_avg_uw        =  4.02609e+00


Total analysis time (seconds) = 0.882401

Total elapsed time (seconds) = 1.042 

Total DRAM available = 16384.000 MB.
DRAM currently available =   68.828 MB.
Maximum ngspice program size =   26.438 MB.
Current ngspice program size =   26.438 MB.

