
Note: Compatibility modes selected: hs a


Circuit: SKY130 library cell inv_1 A_to_Y

option SCALE: Scale is set to 1e-06 for instance and model parameters
Doing analysis at TEMP = -17.441212 and TNOM = 27.000000

Using KLU as Direct Linear Solver
 Reference value :  8.88260e-08
 Reference value :  3.21734e-07
No. of Data Rows : 68034

  Measurements for Transient Analysis

tphl                =  -8.77222e-10 targ=  2.86120e-08 trig=  2.94892e-08
tplh                =  1.28316e-09 targ=  1.11751e-07 trig=  1.10468e-07
i_vdd_avg           =  -6.82119e-07 from=  1.00000e-08 to=  3.30004e-07
power_avg_uw        =  1.34063e+00


Total analysis time (seconds) = 0.383814

Total elapsed time (seconds) = 0.551 

Total DRAM available = 16384.000 MB.
DRAM currently available =  255.859 MB.
Maximum ngspice program size =   25.875 MB.
Current ngspice program size =   25.875 MB.

