
Note: Compatibility modes selected: hs a


Circuit: SKY130 library cell oai21_1 A1_to_Y__A2=0,B1=1

option SCALE: Scale is set to 1e-06 for instance and model parameters
Doing analysis at TEMP = 82.212767 and TNOM = 27.000000

Using KLU as Direct Linear Solver
 Reference value :  2.77075e-08
 Reference value :  1.25079e-07
 Reference value :  2.25913e-07
 Reference value :  3.27079e-07
No. of Data Rows : 68032

  Measurements for Transient Analysis

tphl                =  6.20616e-10 targ=  2.76311e-08 trig=  2.70105e-08
tplh                =  1.82400e-09 targ=  1.04855e-07 trig=  1.03031e-07
i_vdd_avg           =  -1.27661e-06 from=  1.00000e-08 to=  3.30004e-07
power_avg_uw        =  2.40909e+00


Total analysis time (seconds) = 0.864648

Total elapsed time (seconds) = 1.038 

Total DRAM available = 16384.000 MB.
DRAM currently available =   91.438 MB.
Maximum ngspice program size =   25.969 MB.
Current ngspice program size =   25.969 MB.

