
Note: Compatibility modes selected: hs a


Circuit: SKY130 library cell nor2_1 A_to_Y__B=0

option SCALE: Scale is set to 1e-06 for instance and model parameters
Doing analysis at TEMP = 22.076848 and TNOM = 27.000000

Using KLU as Direct Linear Solver
 Reference value :  4.62544e-08
 Reference value :  1.89654e-07
 Reference value :  3.22981e-07
No. of Data Rows : 68030

  Measurements for Transient Analysis

tphl                =  6.88610e-10 targ=  2.74670e-08 trig=  2.67784e-08
tplh                =  2.38840e-09 targ=  1.04724e-07 trig=  1.02335e-07
i_vdd_avg           =  -8.98315e-07 from=  1.00000e-08 to=  3.30001e-07
power_avg_uw        =  1.47471e+00


Total analysis time (seconds) = 0.625996

Total elapsed time (seconds) = 0.783 

Total DRAM available = 16384.000 MB.
DRAM currently available =   89.203 MB.
Maximum ngspice program size =   25.594 MB.
Current ngspice program size =   25.594 MB.

