
Note: Compatibility modes selected: hs a


Circuit: SKY130 library cell inv_4 A_to_Y

option SCALE: Scale is set to 1e-06 for instance and model parameters
Doing analysis at TEMP = 61.421593 and TNOM = 27.000000

Using KLU as Direct Linear Solver
 Reference value :  3.50314e-08
 Reference value :  1.16400e-07
 Reference value :  2.01776e-07
 Reference value :  2.87405e-07
No. of Data Rows : 68032

  Measurements for Transient Analysis

tphl                =  -2.69741e-10 targ=  2.57422e-08 trig=  2.60119e-08
tplh                =  3.93389e-10 targ=  1.00429e-07 trig=  1.00036e-07
i_vdd_avg           =  -1.49747e-06 from=  1.00000e-08 to=  3.30000e-07
power_avg_uw        =  2.86468e+00


Total analysis time (seconds) = 1.0272

Total elapsed time (seconds) = 1.174 

Total DRAM available = 16384.000 MB.
DRAM currently available =   80.938 MB.
Maximum ngspice program size =   24.547 MB.
Current ngspice program size =   24.547 MB.

