
Note: Compatibility modes selected: hs a


Circuit: SKY130 library cell inv_4 A_to_Y

option SCALE: Scale is set to 1e-06 for instance and model parameters
Doing analysis at TEMP = 39.246189 and TNOM = 27.000000

Using KLU as Direct Linear Solver
 Reference value :  2.58075e-08
 Reference value :  9.79065e-08
 Reference value :  1.70756e-07
 Reference value :  2.47327e-07
 Reference value :  3.23481e-07
No. of Data Rows : 68032

  Measurements for Transient Analysis

tphl                =  -6.15369e-11 targ=  2.94405e-08 trig=  2.95020e-08
tplh                =  1.86843e-09 targ=  1.12374e-07 trig=  1.10506e-07
i_vdd_avg           =  -3.11524e-06 from=  1.00000e-08 to=  3.30001e-07
power_avg_uw        =  5.52142e+00


Total analysis time (seconds) = 1.16363

Total elapsed time (seconds) = 1.327 

Total DRAM available = 16384.000 MB.
DRAM currently available =   97.125 MB.
Maximum ngspice program size =   26.969 MB.
Current ngspice program size =   26.969 MB.

