
Note: Compatibility modes selected: hs a


Circuit: SKY130 library cell aoi21_4 A1_to_Y__A2=1,B1=0

option SCALE: Scale is set to 1e-06 for instance and model parameters
Doing analysis at TEMP = 87.090808 and TNOM = 27.000000

Using KLU as Direct Linear Solver
 Reference value :  7.62640e-09
 Reference value :  3.82503e-08
 Reference value :  6.73803e-08
 Reference value :  9.54103e-08
 Reference value :  1.21238e-07
 Reference value :  1.51233e-07
 Reference value :  1.78248e-07
 Reference value :  2.05930e-07
 Reference value :  2.35060e-07
 Reference value :  2.64760e-07
 Reference value :  2.93058e-07
 Reference value :  3.20898e-07
No. of Data Rows : 68034

  Measurements for Transient Analysis

tphl                =  -2.07606e-11 targ=  2.88106e-08 trig=  2.88314e-08
tplh                =  1.44625e-09 targ=  1.09940e-07 trig=  1.08494e-07
i_vdd_avg           =  -3.51233e-06 from=  1.00000e-08 to=  3.30003e-07
power_avg_uw        =  6.58847e+00


Total analysis time (seconds) = 3.06359

Total elapsed time (seconds) = 3.229 

Total DRAM available = 16384.000 MB.
DRAM currently available =   91.516 MB.
Maximum ngspice program size =   28.516 MB.
Current ngspice program size =   28.516 MB.

