
Note: Compatibility modes selected: hs a


Circuit: SKY130 library cell xor2_4 A_to_X__B=0

option SCALE: Scale is set to 1e-06 for instance and model parameters
Doing analysis at TEMP = 84.069434 and TNOM = 27.000000

Using KLU as Direct Linear Solver
 Reference value :  6.03140e-09
 Reference value :  2.26414e-08
 Reference value :  4.04780e-08
 Reference value :  5.80780e-08
 Reference value :  7.64080e-08
 Reference value :  9.40030e-08
 Reference value :  1.10183e-07
 Reference value :  1.27379e-07
 Reference value :  1.44369e-07
 Reference value :  1.61594e-07
 Reference value :  1.78659e-07
 Reference value :  1.96308e-07
 Reference value :  2.13858e-07
 Reference value :  2.31783e-07
 Reference value :  2.49203e-07
 Reference value :  2.65853e-07
 Reference value :  2.84344e-07
 Reference value :  3.01924e-07
 Reference value :  3.18854e-07
 Reference value :  3.34879e-07
No. of Data Rows : 68032

  Measurements for Transient Analysis

tplh                =  -4.94712e-10 targ=  2.89756e-08 trig=  2.94703e-08
tphl                =  1.11595e-09 targ=  1.11527e-07 trig=  1.10411e-07
i_vdd_avg           =  -3.72357e-06 from=  1.00000e-08 to=  3.30004e-07
power_avg_uw        =  6.86602e+00


Total analysis time (seconds) = 5.00266

Total elapsed time (seconds) = 5.162 

Total DRAM available = 16384.000 MB.
DRAM currently available =   92.188 MB.
Maximum ngspice program size =   27.750 MB.
Current ngspice program size =   27.750 MB.

