
Note: Compatibility modes selected: hs a


Circuit: SKY130 library cell nor2_4 A_to_Y__B=0

option SCALE: Scale is set to 1e-06 for instance and model parameters
Doing analysis at TEMP = 105.576760 and TNOM = 27.000000

Using KLU as Direct Linear Solver
 Reference value :  1.04264e-08
 Reference value :  5.19017e-08
 Reference value :  9.60467e-08
 Reference value :  1.42301e-07
 Reference value :  1.84163e-07
 Reference value :  2.29012e-07
 Reference value :  2.76721e-07
 Reference value :  3.24066e-07
No. of Data Rows : 68032

  Measurements for Transient Analysis

tphl                =  2.73873e-10 targ=  2.73885e-08 trig=  2.71146e-08
tplh                =  1.38841e-09 targ=  1.04732e-07 trig=  1.03344e-07
i_vdd_avg           =  -2.58083e-06 from=  1.00000e-08 to=  3.30001e-07
power_avg_uw        =  4.40766e+00


Total analysis time (seconds) = 1.91469

Total elapsed time (seconds) = 2.099 

Total DRAM available = 16384.000 MB.
DRAM currently available =  139.891 MB.
Maximum ngspice program size =   27.219 MB.
Current ngspice program size =   27.219 MB.

