
Note: Compatibility modes selected: hs a


Circuit: SKY130 library cell nor2_1 A_to_Y__B=0

option SCALE: Scale is set to 1e-06 for instance and model parameters
Doing analysis at TEMP = 75.413399 and TNOM = 27.000000

Using KLU as Direct Linear Solver
 Reference value :  4.71647e-08
 Reference value :  1.84000e-07
 Reference value :  3.30407e-07
No. of Data Rows : 68030

  Measurements for Transient Analysis

tphl                =  -6.85018e-11 targ=  2.82151e-08 trig=  2.82836e-08
tplh                =  1.55619e-09 targ=  1.08407e-07 trig=  1.06851e-07
i_vdd_avg           =  -8.83651e-07 from=  1.00000e-08 to=  3.30002e-07
power_avg_uw        =  1.66018e+00


Total analysis time (seconds) = 0.615416

Total elapsed time (seconds) = 0.765 

Total DRAM available = 16384.000 MB.
DRAM currently available =   92.250 MB.
Maximum ngspice program size =   26.422 MB.
Current ngspice program size =   26.422 MB.

