
Note: Compatibility modes selected: hs a


Circuit: SKY130 library cell nor2_4 A_to_Y__B=0

option SCALE: Scale is set to 1e-06 for instance and model parameters
Doing analysis at TEMP = 63.472781 and TNOM = 27.000000

Using KLU as Direct Linear Solver
 Reference value :  1.50964e-08
 Reference value :  5.56927e-08
 Reference value :  9.56377e-08
 Reference value :  1.35323e-07
 Reference value :  1.76983e-07
 Reference value :  2.16033e-07
 Reference value :  2.62048e-07
 Reference value :  3.06103e-07
No. of Data Rows : 68032

  Measurements for Transient Analysis

tphl                =  5.07899e-11 targ=  2.82959e-08 trig=  2.82451e-08
tplh                =  1.74522e-09 targ=  1.08481e-07 trig=  1.06735e-07
i_vdd_avg           =  -3.49077e-06 from=  1.00000e-08 to=  3.30003e-07
power_avg_uw        =  6.45488e+00


Total analysis time (seconds) = 2.06971

Total elapsed time (seconds) = 2.224 

Total DRAM available = 16384.000 MB.
DRAM currently available =   92.188 MB.
Maximum ngspice program size =   24.844 MB.
Current ngspice program size =   24.844 MB.

