
Note: Compatibility modes selected: hs a


Circuit: SKY130 library cell aoi21_1 A1_to_Y__A2=1,B1=0

option SCALE: Scale is set to 1e-06 for instance and model parameters
Doing analysis at TEMP = 80.551831 and TNOM = 27.000000

Using KLU as Direct Linear Solver
 Reference value :  2.73825e-08
 Reference value :  1.17547e-07
 Reference value :  2.06687e-07
 Reference value :  2.90912e-07
No. of Data Rows : 68032

  Measurements for Transient Analysis

tphl                =  1.42855e-09 targ=  3.00708e-08 trig=  2.86423e-08
tplh                =  3.35621e-09 targ=  1.11283e-07 trig=  1.07927e-07
i_vdd_avg           =  -1.78211e-06 from=  1.00000e-08 to=  3.30002e-07
power_avg_uw        =  3.05989e+00


Total analysis time (seconds) = 0.999178

Total elapsed time (seconds) = 1.161 

Total DRAM available = 16384.000 MB.
DRAM currently available =   94.625 MB.
Maximum ngspice program size =   26.078 MB.
Current ngspice program size =   26.078 MB.

