
Note: Compatibility modes selected: hs a


Circuit: SKY130 library cell oai21_4 A1_to_Y__A2=0,B1=1

option SCALE: Scale is set to 1e-06 for instance and model parameters
Doing analysis at TEMP = 56.766517 and TNOM = 27.000000

Using KLU as Direct Linear Solver
 Reference value :  7.02640e-09
 Reference value :  3.68253e-08
 Reference value :  6.75203e-08
 Reference value :  9.84153e-08
 Reference value :  1.31073e-07
 Reference value :  1.64398e-07
 Reference value :  2.05745e-07
 Reference value :  2.49545e-07
 Reference value :  2.92058e-07
 Reference value :  3.34103e-07
No. of Data Rows : 68034

  Measurements for Transient Analysis

tphl                =  3.65609e-10 targ=  2.81245e-08 trig=  2.77589e-08
tplh                =  1.76307e-09 targ=  1.07040e-07 trig=  1.05277e-07
i_vdd_avg           =  -2.41440e-06 from=  1.00000e-08 to=  3.30003e-07
power_avg_uw        =  4.15509e+00


Total analysis time (seconds) = 2.36192

Total elapsed time (seconds) = 2.544 

Total DRAM available = 16384.000 MB.
DRAM currently available =  214.359 MB.
Maximum ngspice program size =   27.078 MB.
Current ngspice program size =   27.078 MB.

