
Note: Compatibility modes selected: hs a


Circuit: SKY130 library cell inv_1 A_to_Y

option SCALE: Scale is set to 1e-06 for instance and model parameters
Doing analysis at TEMP = 95.937686 and TNOM = 27.000000

Using KLU as Direct Linear Solver
 Reference value :  6.80423e-08
 Reference value :  2.96787e-07
No. of Data Rows : 68032

  Measurements for Transient Analysis

tphl                =  3.12188e-10 targ=  2.57096e-08 trig=  2.53974e-08
tplh                =  7.97617e-10 targ=  9.89898e-08 trig=  9.81922e-08
i_vdd_avg           =  -5.85034e-07 from=  1.00000e-08 to=  3.30002e-07
power_avg_uw        =  1.02083e+00


Total analysis time (seconds) = 0.377632

Total elapsed time (seconds) = 0.538 

Total DRAM available = 16384.000 MB.
DRAM currently available =  132.875 MB.
Maximum ngspice program size =   26.938 MB.
Current ngspice program size =   26.938 MB.

