
Note: Compatibility modes selected: hs a


Circuit: SKY130 library cell oai21_4 A1_to_Y__A2=0,B1=1

option SCALE: Scale is set to 1e-06 for instance and model parameters
Doing analysis at TEMP = -23.792803 and TNOM = 27.000000

Using KLU as Direct Linear Solver
 Reference value :  8.29140e-09
 Reference value :  3.78217e-08
 Reference value :  6.69067e-08
 Reference value :  9.53817e-08
 Reference value :  1.23981e-07
 Reference value :  1.51481e-07
 Reference value :  1.79931e-07
 Reference value :  2.06687e-07
 Reference value :  2.34582e-07
 Reference value :  2.65432e-07
 Reference value :  2.95626e-07
 Reference value :  3.26166e-07
No. of Data Rows : 68032

  Measurements for Transient Analysis

tphl                =  5.76731e-10 targ=  2.97638e-08 trig=  2.91871e-08
tplh                =  3.10834e-09 targ=  1.12670e-07 trig=  1.09561e-07
i_vdd_avg           =  -2.05892e-06 from=  1.00000e-08 to=  3.30001e-07
power_avg_uw        =  3.36722e+00


Total analysis time (seconds) = 3.00743

Total elapsed time (seconds) = 3.192 

Total DRAM available = 16384.000 MB.
DRAM currently available =  122.859 MB.
Maximum ngspice program size =   28.203 MB.
Current ngspice program size =   28.203 MB.

