
Note: Compatibility modes selected: hs a


Circuit: SKY130 library cell xor2_1 A_to_X__B=0

option SCALE: Scale is set to 1e-06 for instance and model parameters
Doing analysis at TEMP = 65.886105 and TNOM = 27.000000

Using KLU as Direct Linear Solver
 Reference value :  1.42314e-08
 Reference value :  7.74912e-08
 Reference value :  1.36295e-07
 Reference value :  1.93201e-07
 Reference value :  2.52196e-07
 Reference value :  3.14345e-07
No. of Data Rows : 68034

  Measurements for Transient Analysis

tplh                =  2.02093e-09 targ=  2.76628e-08 trig=  2.56418e-08
tphl                =  9.77999e-10 targ=  9.99035e-08 trig=  9.89255e-08
i_vdd_avg           =  -2.14320e-06 from=  1.00000e-08 to=  3.30005e-07
power_avg_uw        =  3.61023e+00


Total analysis time (seconds) = 1.45731

Total elapsed time (seconds) = 1.637 

Total DRAM available = 16384.000 MB.
DRAM currently available =  102.094 MB.
Maximum ngspice program size =   28.203 MB.
Current ngspice program size =   28.203 MB.

