
Note: Compatibility modes selected: hs a


Circuit: SKY130 library cell xor2_1 A_to_X__B=0

option SCALE: Scale is set to 1e-06 for instance and model parameters
Doing analysis at TEMP = 113.879810 and TNOM = 27.000000

Using KLU as Direct Linear Solver
 Reference value :  1.92464e-08
 Reference value :  8.44411e-08
 Reference value :  1.46760e-07
 Reference value :  2.13411e-07
 Reference value :  2.78470e-07
No. of Data Rows : 68034

  Measurements for Transient Analysis

tplh                =  4.43621e-10 targ=  2.86029e-08 trig=  2.81593e-08
tphl                =  1.11470e-09 targ=  1.07593e-07 trig=  1.06478e-07
i_vdd_avg           =  -1.53834e-06 from=  1.00000e-08 to=  3.30005e-07
power_avg_uw        =  2.72574e+00


Total analysis time (seconds) = 1.32997

Total elapsed time (seconds) = 1.489 

Total DRAM available = 16384.000 MB.
DRAM currently available =   88.719 MB.
Maximum ngspice program size =   27.703 MB.
Current ngspice program size =   27.703 MB.

