
Note: Compatibility modes selected: hs a


Circuit: SKY130 library cell nor2_1 A_to_Y__B=0

option SCALE: Scale is set to 1e-06 for instance and model parameters
Doing analysis at TEMP = 1.653513 and TNOM = 27.000000

Using KLU as Direct Linear Solver
 Reference value :  3.99157e-08
 Reference value :  1.85178e-07
 Reference value :  3.27174e-07
No. of Data Rows : 68034

  Measurements for Transient Analysis

tphl                =  6.47655e-10 targ=  2.77317e-08 trig=  2.70841e-08
tplh                =  2.58546e-09 targ=  1.05838e-07 trig=  1.03252e-07
i_vdd_avg           =  -1.46539e-06 from=  1.00000e-08 to=  3.30004e-07
power_avg_uw        =  2.69849e+00


Total analysis time (seconds) = 0.61588

Total elapsed time (seconds) = 0.778 

Total DRAM available = 16384.000 MB.
DRAM currently available =   91.516 MB.
Maximum ngspice program size =   24.734 MB.
Current ngspice program size =   24.734 MB.

