
Note: Compatibility modes selected: hs a


Circuit: SKY130 library cell oai21_4 A1_to_Y__A2=0,B1=1

option SCALE: Scale is set to 1e-06 for instance and model parameters
Doing analysis at TEMP = 111.969730 and TNOM = 27.000000

Using KLU as Direct Linear Solver
 Reference value :  9.67140e-09
 Reference value :  3.92907e-08
 Reference value :  6.75657e-08
 Reference value :  9.78557e-08
 Reference value :  1.29149e-07
 Reference value :  1.59139e-07
 Reference value :  1.89593e-07
 Reference value :  2.19231e-07
 Reference value :  2.48456e-07
 Reference value :  2.76379e-07
 Reference value :  3.04144e-07
 Reference value :  3.33554e-07
No. of Data Rows : 68034

  Measurements for Transient Analysis

tphl                =  -2.29613e-10 targ=  2.87695e-08 trig=  2.89991e-08
tplh                =  1.28609e-09 targ=  1.10283e-07 trig=  1.08997e-07
i_vdd_avg           =  -3.97140e-06 from=  1.00000e-08 to=  3.30004e-07
power_avg_uw        =  7.53582e+00


Total analysis time (seconds) = 2.94532

Total elapsed time (seconds) = 3.105 

Total DRAM available = 16384.000 MB.
DRAM currently available =   80.938 MB.
Maximum ngspice program size =   27.953 MB.
Current ngspice program size =   27.953 MB.

