
Note: Compatibility modes selected: hs a


Circuit: SKY130 library cell aoi21_4 A1_to_Y__A2=1,B1=0

option SCALE: Scale is set to 1e-06 for instance and model parameters
Doing analysis at TEMP = 57.324454 and TNOM = 27.000000

Using KLU as Direct Linear Solver
 Reference value :  5.43640e-09
 Reference value :  3.26707e-08
 Reference value :  5.98807e-08
 Reference value :  8.85757e-08
 Reference value :  1.13929e-07
 Reference value :  1.39329e-07
 Reference value :  1.65589e-07
 Reference value :  1.90816e-07
 Reference value :  2.18596e-07
 Reference value :  2.46956e-07
 Reference value :  2.76169e-07
 Reference value :  3.03494e-07
 Reference value :  3.31604e-07
No. of Data Rows : 68034

  Measurements for Transient Analysis

tphl                =  4.49741e-10 targ=  2.56063e-08 trig=  2.51566e-08
tplh                =  1.03482e-09 targ=  9.85046e-08 trig=  9.74697e-08
i_vdd_avg           =  -1.88810e-06 from=  1.00000e-08 to=  3.30004e-07
power_avg_uw        =  3.09416e+00


Total analysis time (seconds) = 3.18905

Total elapsed time (seconds) = 3.376 

Total DRAM available = 16384.000 MB.
DRAM currently available =   92.250 MB.
Maximum ngspice program size =   26.188 MB.
Current ngspice program size =   26.188 MB.

