
Note: Compatibility modes selected: hs a


Circuit: SKY130 library cell nand3_1 A_to_Y__B=1,C=1

option SCALE: Scale is set to 1e-06 for instance and model parameters
Doing analysis at TEMP = 83.015519 and TNOM = 27.000000

Using KLU as Direct Linear Solver
 Reference value :  3.35325e-08
 Reference value :  1.35160e-07
 Reference value :  2.41821e-07
No. of Data Rows : 68032

  Measurements for Transient Analysis

tphl                =  1.21589e-09 targ=  3.04379e-08 trig=  2.92220e-08
tplh                =  2.35188e-09 targ=  1.12018e-07 trig=  1.09666e-07
i_vdd_avg           =  -1.02733e-06 from=  1.00000e-08 to=  3.30000e-07
power_avg_uw        =  1.68219e+00


Total analysis time (seconds) = 0.830345

Total elapsed time (seconds) = 0.990 

Total DRAM available = 16384.000 MB.
DRAM currently available =   89.203 MB.
Maximum ngspice program size =   25.969 MB.
Current ngspice program size =   25.969 MB.

