Note: Starting dynamic gmin stepping
Note: Dynamic gmin stepping completed

Note: Compatibility modes selected: hs a


Circuit: SKY130 library cell mux2_4 A0_to_X__A1=0,S=0

option SCALE: Scale is set to 1e-06 for instance and model parameters
Doing analysis at TEMP = -32.972954 and TNOM = 27.000000

Using KLU as Direct Linear Solver
 Reference value :  1.21514e-08
 Reference value :  4.93772e-08
 Reference value :  8.87372e-08
 Reference value :  1.26852e-07
 Reference value :  1.62287e-07
 Reference value :  1.97212e-07
 Reference value :  2.33582e-07
 Reference value :  2.74562e-07
 Reference value :  3.14807e-07
No. of Data Rows : 68032

  Measurements for Transient Analysis

tplh                =  -1.75888e-10 targ=  2.85915e-08 trig=  2.87674e-08
tphl                =  1.58021e-09 targ=  1.09882e-07 trig=  1.08302e-07
i_vdd_avg           =  -1.64271e-06 from=  1.00000e-08 to=  3.30002e-07
power_avg_uw        =  3.02771e+00


Total analysis time (seconds) = 2.25694

Total elapsed time (seconds) = 2.420 

Total DRAM available = 16384.000 MB.
DRAM currently available =   91.438 MB.
Maximum ngspice program size =   26.406 MB.
Current ngspice program size =   26.406 MB.

