
Note: Compatibility modes selected: hs a


Circuit: SKY130 library cell xor2_1 A_to_X__B=0

option SCALE: Scale is set to 1e-06 for instance and model parameters
Doing analysis at TEMP = -27.919407 and TNOM = 27.000000

Using KLU as Direct Linear Solver
 Reference value :  2.68925e-08
 Reference value :  9.64272e-08
 Reference value :  1.60827e-07
 Reference value :  2.21902e-07
 Reference value :  2.84447e-07
No. of Data Rows : 68032

  Measurements for Transient Analysis

tplh                =  8.47994e-11 targ=  2.99847e-08 trig=  2.98999e-08
tphl                =  1.80117e-09 targ=  1.13501e-07 trig=  1.11700e-07
i_vdd_avg           =  -5.89892e-07 from=  1.00000e-08 to=  3.30002e-07
power_avg_uw        =  9.67675e-01


Total analysis time (seconds) = 1.35095

Total elapsed time (seconds) = 1.498 

Total DRAM available = 16384.000 MB.
DRAM currently available =  106.781 MB.
Maximum ngspice program size =   25.359 MB.
Current ngspice program size =   25.359 MB.

