
Note: Compatibility modes selected: hs a


Circuit: SKY130 library cell nand2_1 A_to_Y__B=1

option SCALE: Scale is set to 1e-06 for instance and model parameters
Doing analysis at TEMP = 92.888205 and TNOM = 27.000000

Using KLU as Direct Linear Solver
 Reference value :  4.74281e-08
 Reference value :  1.82699e-07
 Reference value :  3.32989e-07
No. of Data Rows : 68032

  Measurements for Transient Analysis

tphl                =  7.77986e-10 targ=  2.68833e-08 trig=  2.61053e-08
tplh                =  1.35361e-09 targ=  1.01669e-07 trig=  1.00316e-07
i_vdd_avg           =  -1.03038e-06 from=  1.00000e-08 to=  3.30004e-07
power_avg_uw        =  1.78380e+00


Total analysis time (seconds) = 0.602462

Total elapsed time (seconds) = 0.760 

Total DRAM available = 16384.000 MB.
DRAM currently available =   90.719 MB.
Maximum ngspice program size =   27.484 MB.
Current ngspice program size =   27.484 MB.

