
Note: Compatibility modes selected: hs a


Circuit: SKY130 library cell inv_4 A_to_Y

option SCALE: Scale is set to 1e-06 for instance and model parameters
Doing analysis at TEMP = 82.749398 and TNOM = 27.000000

Using KLU as Direct Linear Solver
 Reference value :  3.02375e-08
 Reference value :  1.14680e-07
 Reference value :  1.96164e-07
 Reference value :  2.77115e-07
No. of Data Rows : 68030

  Measurements for Transient Analysis

tphl                =  7.31303e-11 targ=  2.84113e-08 trig=  2.83382e-08
tplh                =  1.37937e-09 targ=  1.08394e-07 trig=  1.07015e-07
i_vdd_avg           =  -2.66375e-06 from=  1.00000e-08 to=  3.30000e-07
power_avg_uw        =  4.55903e+00


Total analysis time (seconds) = 1.04407

Total elapsed time (seconds) = 1.196 

Total DRAM available = 16384.000 MB.
DRAM currently available =   90.719 MB.
Maximum ngspice program size =   26.922 MB.
Current ngspice program size =   26.922 MB.

