
Note: Compatibility modes selected: hs a


Circuit: SKY130 library cell mux2_1 A0_to_X__A1=0,S=0

option SCALE: Scale is set to 1e-06 for instance and model parameters
Doing analysis at TEMP = 108.372080 and TNOM = 27.000000

Using KLU as Direct Linear Solver
 Reference value :  1.81814e-08
 Reference value :  7.10990e-08
 Reference value :  1.27235e-07
 Reference value :  1.81215e-07
 Reference value :  2.36794e-07
 Reference value :  2.90800e-07
No. of Data Rows : 68030

  Measurements for Transient Analysis

tplh                =  -1.65407e-10 targ=  2.88228e-08 trig=  2.89882e-08
tphl                =  1.25811e-09 targ=  1.10223e-07 trig=  1.08965e-07
i_vdd_avg           =  -6.97111e-07 from=  1.00000e-08 to=  3.30000e-07
power_avg_uw        =  1.25897e+00


Total analysis time (seconds) = 1.56053

Total elapsed time (seconds) = 1.724 

Total DRAM available = 16384.000 MB.
DRAM currently available =   89.203 MB.
Maximum ngspice program size =   26.797 MB.
Current ngspice program size =   26.797 MB.

