
Note: Compatibility modes selected: hs a


Circuit: SKY130 library cell xor2_4 A_to_X__B=0

option SCALE: Scale is set to 1e-06 for instance and model parameters
Doing analysis at TEMP = 102.895130 and TNOM = 27.000000

Using KLU as Direct Linear Solver
 Reference value :  3.45140e-09
 Reference value :  2.14264e-08
 Reference value :  3.82079e-08
 Reference value :  5.58279e-08
 Reference value :  7.37579e-08
 Reference value :  9.18629e-08
 Reference value :  1.09398e-07
 Reference value :  1.27528e-07
 Reference value :  1.45343e-07
 Reference value :  1.62638e-07
 Reference value :  1.80673e-07
 Reference value :  1.97093e-07
 Reference value :  2.14028e-07
 Reference value :  2.30758e-07
 Reference value :  2.46953e-07
 Reference value :  2.62763e-07
 Reference value :  2.78673e-07
 Reference value :  2.94233e-07
 Reference value :  3.10208e-07
 Reference value :  3.25963e-07
No. of Data Rows : 68032

  Measurements for Transient Analysis

tplh                =  1.63891e-10 targ=  2.67091e-08 trig=  2.65452e-08
tphl                =  7.16916e-10 targ=  1.02352e-07 trig=  1.01636e-07
i_vdd_avg           =  -3.98398e-06 from=  1.00000e-08 to=  3.30003e-07
power_avg_uw        =  7.47133e+00


Total analysis time (seconds) = 5.13973

Total elapsed time (seconds) = 5.337 

Total DRAM available = 16384.000 MB.
DRAM currently available =  102.094 MB.
Maximum ngspice program size =   27.344 MB.
Current ngspice program size =   27.344 MB.

