Note: Starting dynamic gmin stepping
Note: Dynamic gmin stepping completed

Note: Compatibility modes selected: hs a


Circuit: SKY130 library cell mux2_1 A0_to_X__A1=0,S=0

option SCALE: Scale is set to 1e-06 for instance and model parameters
Doing analysis at TEMP = -36.150722 and TNOM = 27.000000

Using KLU as Direct Linear Solver
 Reference value :  1.64664e-08
 Reference value :  6.61886e-08
 Reference value :  1.15465e-07
 Reference value :  1.68000e-07
 Reference value :  2.26074e-07
 Reference value :  2.77095e-07
 Reference value :  3.28435e-07
No. of Data Rows : 68032

  Measurements for Transient Analysis

tplh                =  1.39285e-11 targ=  2.93645e-08 trig=  2.93506e-08
tphl                =  1.62405e-09 targ=  1.11676e-07 trig=  1.10052e-07
i_vdd_avg           =  -5.84122e-07 from=  1.00000e-08 to=  3.30005e-07
power_avg_uw        =  1.00322e+00


Total analysis time (seconds) = 1.68347

Total elapsed time (seconds) = 1.854 

Total DRAM available = 16384.000 MB.
DRAM currently available =  122.859 MB.
Maximum ngspice program size =   27.469 MB.
Current ngspice program size =   27.469 MB.

