
Note: Compatibility modes selected: hs a


Circuit: SKY130 library cell oai21_1 A1_to_Y__A2=0,B1=1

option SCALE: Scale is set to 1e-06 for instance and model parameters
Doing analysis at TEMP = 3.079963 and TNOM = 27.000000

Using KLU as Direct Linear Solver
 Reference value :  3.79280e-08
 Reference value :  1.38904e-07
 Reference value :  2.41198e-07
No. of Data Rows : 68032

  Measurements for Transient Analysis

tphl                =  1.28864e-09 targ=  3.10839e-08 trig=  2.97953e-08
tplh                =  4.33103e-09 targ=  1.15717e-07 trig=  1.11386e-07
i_vdd_avg           =  -1.86584e-06 from=  1.00000e-08 to=  3.30004e-07
power_avg_uw        =  3.31102e+00


Total analysis time (seconds) = 0.863739

Total elapsed time (seconds) = 1.014 

Total DRAM available = 16384.000 MB.
DRAM currently available =   73.266 MB.
Maximum ngspice program size =   24.453 MB.
Current ngspice program size =   24.453 MB.

