
Note: Compatibility modes selected: hs a


Circuit: SKY130 library cell nor2_4 A_to_Y__B=0

option SCALE: Scale is set to 1e-06 for instance and model parameters
Doing analysis at TEMP = 79.627914 and TNOM = 27.000000

Using KLU as Direct Linear Solver
 Reference value :  1.49164e-08
 Reference value :  5.92421e-08
 Reference value :  1.03367e-07
 Reference value :  1.49672e-07
 Reference value :  1.95222e-07
 Reference value :  2.39362e-07
 Reference value :  2.81462e-07
 Reference value :  3.24377e-07
No. of Data Rows : 68032

  Measurements for Transient Analysis

tphl                =  -3.78548e-12 targ=  2.61435e-08 trig=  2.61473e-08
tplh                =  6.99440e-10 targ=  1.01141e-07 trig=  1.00442e-07
i_vdd_avg           =  -7.82075e-07 from=  1.00000e-08 to=  3.30002e-07
power_avg_uw        =  1.28225e+00


Total analysis time (seconds) = 1.97108

Total elapsed time (seconds) = 2.129 

Total DRAM available = 16384.000 MB.
DRAM currently available =   92.078 MB.
Maximum ngspice program size =   26.922 MB.
Current ngspice program size =   26.922 MB.

