
Note: Compatibility modes selected: hs a


Circuit: SKY130 library cell xor2_1 A_to_X__B=0

option SCALE: Scale is set to 1e-06 for instance and model parameters
Doing analysis at TEMP = 82.817493 and TNOM = 27.000000

Using KLU as Direct Linear Solver
 Reference value :  2.31814e-08
 Reference value :  9.03144e-08
 Reference value :  1.49606e-07
 Reference value :  2.16319e-07
 Reference value :  2.84321e-07
No. of Data Rows : 68030

  Measurements for Transient Analysis

tplh                =  1.39218e-09 targ=  2.57581e-08 trig=  2.43660e-08
tphl                =  5.51859e-10 targ=  9.56497e-08 trig=  9.50979e-08
i_vdd_avg           =  -2.05331e-06 from=  1.00000e-08 to=  3.30001e-07
power_avg_uw        =  3.94608e+00


Total analysis time (seconds) = 1.33515

Total elapsed time (seconds) = 1.485 

Total DRAM available = 16384.000 MB.
DRAM currently available =   92.078 MB.
Maximum ngspice program size =   26.375 MB.
Current ngspice program size =   26.375 MB.

