
Note: Compatibility modes selected: hs a


Circuit: SKY130 library cell aoi21_4 A1_to_Y__A2=1,B1=0

option SCALE: Scale is set to 1e-06 for instance and model parameters
Doing analysis at TEMP = -20.763819 and TNOM = 27.000000

Using KLU as Direct Linear Solver
 Reference value :  7.86640e-09
 Reference value :  3.56564e-08
 Reference value :  6.62264e-08
 Reference value :  9.66814e-08
 Reference value :  1.25095e-07
 Reference value :  1.52560e-07
 Reference value :  1.81400e-07
 Reference value :  2.10131e-07
 Reference value :  2.36446e-07
 Reference value :  2.64891e-07
 Reference value :  2.95440e-07
 Reference value :  3.24230e-07
No. of Data Rows : 68032

  Measurements for Transient Analysis

tphl                =  -4.45862e-10 targ=  2.90486e-08 trig=  2.94944e-08
tplh                =  1.83637e-09 targ=  1.12320e-07 trig=  1.10483e-07
i_vdd_avg           =  -2.38750e-06 from=  1.00000e-08 to=  3.30000e-07
power_avg_uw        =  4.65149e+00


Total analysis time (seconds) = 3.04772

Total elapsed time (seconds) = 3.221 

Total DRAM available = 16384.000 MB.
DRAM currently available =   89.656 MB.
Maximum ngspice program size =   25.625 MB.
Current ngspice program size =   25.625 MB.

