
Note: Compatibility modes selected: hs a


Circuit: SKY130 library cell inv_1 A_to_Y

option SCALE: Scale is set to 1e-06 for instance and model parameters
Doing analysis at TEMP = 52.727508 and TNOM = 27.000000

Using KLU as Direct Linear Solver
 Reference value :  6.96145e-08
 Reference value :  3.00522e-07
No. of Data Rows : 68030

  Measurements for Transient Analysis

tphl                =  1.07928e-09 targ=  2.73928e-08 trig=  2.63135e-08
tplh                =  2.20297e-09 targ=  1.03143e-07 trig=  1.00941e-07
i_vdd_avg           =  -1.87832e-06 from=  1.00000e-08 to=  3.30002e-07
power_avg_uw        =  3.16629e+00


Total analysis time (seconds) = 0.375447

Total elapsed time (seconds) = 0.534 

Total DRAM available = 16384.000 MB.
DRAM currently available =  102.094 MB.
Maximum ngspice program size =   25.953 MB.
Current ngspice program size =   25.953 MB.

