
Note: Compatibility modes selected: hs a


Circuit: SKY130 library cell mux2_1 A0_to_X__A1=0,S=0

option SCALE: Scale is set to 1e-06 for instance and model parameters
Doing analysis at TEMP = 72.567948 and TNOM = 27.000000

Using KLU as Direct Linear Solver
 Reference value :  2.17114e-08
 Reference value :  7.61625e-08
 Reference value :  1.37417e-07
 Reference value :  1.94052e-07
 Reference value :  2.48867e-07
 Reference value :  3.06287e-07
No. of Data Rows : 68032

  Measurements for Transient Analysis

tplh                =  8.82973e-10 targ=  2.50205e-08 trig=  2.41375e-08
tphl                =  6.05633e-10 targ=  9.50181e-08 trig=  9.44125e-08
i_vdd_avg           =  -2.32686e-06 from=  1.00000e-08 to=  3.30002e-07
power_avg_uw        =  4.50399e+00


Total analysis time (seconds) = 1.52397

Total elapsed time (seconds) = 1.691 

Total DRAM available = 16384.000 MB.
DRAM currently available =  103.781 MB.
Maximum ngspice program size =   25.438 MB.
Current ngspice program size =   25.438 MB.

