
Note: Compatibility modes selected: hs a


Circuit: SKY130 library cell aoi21_1 A1_to_Y__A2=1,B1=0

option SCALE: Scale is set to 1e-06 for instance and model parameters
Doing analysis at TEMP = 29.061272 and TNOM = 27.000000

Using KLU as Direct Linear Solver
 Reference value :  3.24250e-08
 Reference value :  1.37813e-07
 Reference value :  2.38480e-07
No. of Data Rows : 68034

  Measurements for Transient Analysis

tphl                =  2.01131e-10 targ=  2.71174e-08 trig=  2.69163e-08
tplh                =  1.37915e-09 targ=  1.04128e-07 trig=  1.02749e-07
i_vdd_avg           =  -8.25032e-07 from=  1.00000e-08 to=  3.30003e-07
power_avg_uw        =  1.63196e+00


Total analysis time (seconds) = 0.838769

Total elapsed time (seconds) = 1.001 

Total DRAM available = 16384.000 MB.
DRAM currently available =   72.734 MB.
Maximum ngspice program size =   26.641 MB.
Current ngspice program size =   26.641 MB.

