
Note: Compatibility modes selected: hs a


Circuit: SKY130 library cell inv_1 A_to_Y

option SCALE: Scale is set to 1e-06 for instance and model parameters
Doing analysis at TEMP = 9.529805 and TNOM = 27.000000

Using KLU as Direct Linear Solver
 Reference value :  7.40304e-08
 Reference value :  3.06168e-07
No. of Data Rows : 68034

  Measurements for Transient Analysis

tphl                =  4.60057e-10 targ=  2.92090e-08 trig=  2.87490e-08
tplh                =  2.50653e-09 targ=  1.10753e-07 trig=  1.08247e-07
i_vdd_avg           =  -1.60715e-06 from=  1.00000e-08 to=  3.30003e-07
power_avg_uw        =  3.04246e+00


Total analysis time (seconds) = 0.382458

Total elapsed time (seconds) = 0.539 

Total DRAM available = 16384.000 MB.
DRAM currently available =   88.719 MB.
Maximum ngspice program size =   26.281 MB.
Current ngspice program size =   26.281 MB.

