
Note: No compatibility mode selected!


Circuit: NOR2 seed characterization sample 4223009

Doing analysis at TEMP = 81.234900 and TNOM = 27.000000

Using SPARSE 1.3 as Direct Linear Solver

Initial Transient Solution
--------------------------

Node                                   Voltage
----                                   -------
vdd                                     1.7274
in                                           0
out                                     1.7274
pmid                                    1.7274
vin#branch                                   0
vdd#branch                        -3.81676e-11

 Reference value :  4.75936e-08
 Reference value :  1.08898e-07
No. of Data Rows : 60041

  Measurements for Transient Analysis

tphl                =  2.18195e-10 targ=  2.42649e-09 trig=  2.20830e-09
tplh                =  8.91387e-10 targ=  2.35163e-08 trig=  2.26249e-08
i_vdd_avg           =  -4.63958e-06 from=  5.00000e-09 to=  1.10000e-07
power_avg_uw        =  8.01441e+00


Total analysis time (seconds) = 0.472091

Total elapsed time (seconds) = 0.541 

Total DRAM available = 16384.000 MB.
DRAM currently available =  139.594 MB.
Maximum ngspice program size =   12.750 MB.
Current ngspice program size =   12.000 MB.

