
Note: No compatibility mode selected!


Circuit: XOR2 seed characterization sample 4223045

Doing analysis at TEMP = -11.891500 and TNOM = 27.000000

Using SPARSE 1.3 as Direct Linear Solver

Initial Transient Solution
--------------------------

Node                                   Voltage
----                                   -------
vdd                                    1.86778
in                                           0
b                                      1.86778
abar                                   1.86778
bbar                               1.15372e-09
out                                    1.86778
vb#branch                                    0
vin#branch                         1.90743e-12
vdd#branch                        -1.13192e-11

 Reference value :  2.57364e-08
 Reference value :  5.99447e-08
 Reference value :  9.30247e-08
No. of Data Rows : 60044

  Measurements for Transient Analysis

tphl                =  2.64477e-10 targ=  2.29533e-09 trig=  2.03085e-09
tplh                =  2.98867e-10 targ=  2.23914e-08 trig=  2.20926e-08
i_vdd_avg           =  -6.80524e-06 from=  5.00000e-09 to=  1.10000e-07
power_avg_uw        =  1.27107e+01


Total analysis time (seconds) = 0.860411

Total elapsed time (seconds) = 0.938 

Total DRAM available = 16384.000 MB.
DRAM currently available =   85.703 MB.
Maximum ngspice program size =   12.734 MB.
Current ngspice program size =   11.906 MB.

