
Note: No compatibility mode selected!


Circuit: INV seed characterization sample 4223006

Doing analysis at TEMP = 1.175920 and TNOM = 27.000000

Using SPARSE 1.3 as Direct Linear Solver

Initial Transient Solution
--------------------------

Node                                   Voltage
----                                   -------
vdd                                    1.94014
in                                           0
out                                    1.94014
vin#branch                                   0
vdd#branch                        -1.96758e-12

 Reference value :  5.92491e-08
No. of Data Rows : 60044

  Measurements for Transient Analysis

tphl                =  3.28188e-10 targ=  2.42925e-09 trig=  2.10106e-09
tplh                =  3.56788e-10 targ=  2.26600e-08 trig=  2.23032e-08
i_vdd_avg           =  -2.05172e-06 from=  5.00000e-09 to=  1.10001e-07
power_avg_uw        =  3.98063e+00


Total analysis time (seconds) = 0.348743

Total elapsed time (seconds) = 0.429 

Total DRAM available = 16384.000 MB.
DRAM currently available =  141.844 MB.
Maximum ngspice program size =   12.562 MB.
Current ngspice program size =   11.875 MB.

