
Note: No compatibility mode selected!


Circuit: XOR2 seed characterization sample 4223004

Doing analysis at TEMP = 64.488300 and TNOM = 27.000000

Using SPARSE 1.3 as Direct Linear Solver

Initial Transient Solution
--------------------------

Node                                   Voltage
----                                   -------
vdd                                    1.95804
in                                           0
b                                      1.95804
abar                                   1.95804
bbar                               6.44733e-09
out                                    1.95804
vb#branch                                    0
vin#branch                          5.2611e-12
vdd#branch                        -1.79652e-11

 Reference value :  2.69857e-08
 Reference value :  6.20964e-08
 Reference value :  9.58804e-08
No. of Data Rows : 60047

  Measurements for Transient Analysis

tphl                =  2.15720e-10 targ=  2.27740e-09 trig=  2.06168e-09
tplh                =  2.74964e-10 targ=  2.24600e-08 trig=  2.21850e-08
i_vdd_avg           =  -1.28890e-06 from=  5.00000e-09 to=  1.10002e-07
power_avg_uw        =  2.52373e+00


Total analysis time (seconds) = 0.848563

Total elapsed time (seconds) = 0.919 

Total DRAM available = 16384.000 MB.
DRAM currently available =  123.719 MB.
Maximum ngspice program size =   12.562 MB.
Current ngspice program size =   12.047 MB.

