
Note: No compatibility mode selected!


Circuit: NOR2 seed characterization sample 4223028

Doing analysis at TEMP = 40.165700 and TNOM = 27.000000

Using SPARSE 1.3 as Direct Linear Solver

Initial Transient Solution
--------------------------

Node                                   Voltage
----                                   -------
vdd                                    1.81554
in                                           0
out                                    1.81554
pmid                                   1.81554
vin#branch                                   0
vdd#branch                        -8.05779e-12

 Reference value :  3.99802e-08
 Reference value :  9.40296e-08
No. of Data Rows : 60041

  Measurements for Transient Analysis

tphl                =  1.78346e-10 targ=  2.37466e-09 trig=  2.19631e-09
tplh                =  5.33664e-10 targ=  2.31226e-08 trig=  2.25889e-08
i_vdd_avg           =  -6.23769e-06 from=  5.00000e-09 to=  1.10000e-07
power_avg_uw        =  1.13248e+01


Total analysis time (seconds) = 0.526396

Total elapsed time (seconds) = 0.603 

Total DRAM available = 16384.000 MB.
DRAM currently available =  136.125 MB.
Maximum ngspice program size =   12.562 MB.
Current ngspice program size =   11.625 MB.

