
Note: No compatibility mode selected!


Circuit: INV seed characterization sample 4223040

Doing analysis at TEMP = 18.370200 and TNOM = 27.000000

Using SPARSE 1.3 as Direct Linear Solver

Initial Transient Solution
--------------------------

Node                                   Voltage
----                                   -------
vdd                                    1.78861
in                                           0
out                                    1.78861
vin#branch                                   0
vdd#branch                        -2.08855e-12

 Reference value :  6.38490e-08
No. of Data Rows : 60044

  Measurements for Transient Analysis

tphl                =  2.64181e-10 targ=  2.42418e-09 trig=  2.16000e-09
tplh                =  2.97216e-10 targ=  2.27772e-08 trig=  2.24800e-08
i_vdd_avg           =  -5.09970e-06 from=  5.00000e-09 to=  1.10001e-07
power_avg_uw        =  9.12138e+00


Total analysis time (seconds) = 0.327209

Total elapsed time (seconds) = 0.402 

Total DRAM available = 16384.000 MB.
DRAM currently available =  130.625 MB.
Maximum ngspice program size =   12.562 MB.
Current ngspice program size =   11.844 MB.

