
Note: No compatibility mode selected!


Circuit: NOR2 seed characterization sample 4223044

Doing analysis at TEMP = 68.337100 and TNOM = 27.000000

Using SPARSE 1.3 as Direct Linear Solver

Initial Transient Solution
--------------------------

Node                                   Voltage
----                                   -------
vdd                                    1.64333
in                                           0
out                                    1.64333
pmid                                   1.64333
vin#branch                                   0
vdd#branch                        -2.11446e-11

 Reference value :  4.55982e-08
 Reference value :  1.07267e-07
No. of Data Rows : 60047

  Measurements for Transient Analysis

tphl                =  1.56343e-10 targ=  2.31492e-09 trig=  2.15858e-09
tplh                =  5.59131e-10 targ=  2.30349e-08 trig=  2.24757e-08
i_vdd_avg           =  -3.13400e-06 from=  5.00000e-09 to=  1.10001e-07
power_avg_uw        =  5.15020e+00


Total analysis time (seconds) = 0.472461

Total elapsed time (seconds) = 0.547 

Total DRAM available = 16384.000 MB.
DRAM currently available =  135.594 MB.
Maximum ngspice program size =   13.219 MB.
Current ngspice program size =   13.219 MB.

