
Note: No compatibility mode selected!


Circuit: NAND2 seed characterization sample 4223021

Doing analysis at TEMP = 0.593882 and TNOM = 27.000000

Using SPARSE 1.3 as Direct Linear Solver

Initial Transient Solution
--------------------------

Node                                   Voltage
----                                   -------
vdd                                    1.72509
in                                           0
out                                    1.72509
nmid                                0.00668711
vin#branch                                   0
vdd#branch                        -1.75421e-12

 Reference value :  4.69090e-08
 Reference value :  1.08123e-07
No. of Data Rows : 60044

  Measurements for Transient Analysis

tphl                =  6.19678e-10 targ=  2.82070e-09 trig=  2.20102e-09
tplh                =  3.46566e-10 targ=  2.29496e-08 trig=  2.26031e-08
i_vdd_avg           =  -4.02605e-06 from=  5.00000e-09 to=  1.10001e-07
power_avg_uw        =  6.94530e+00


Total analysis time (seconds) = 0.47448

Total elapsed time (seconds) = 0.543 

Total DRAM available = 16384.000 MB.
DRAM currently available =  151.141 MB.
Maximum ngspice program size =   12.562 MB.
Current ngspice program size =   11.938 MB.

