
Note: No compatibility mode selected!


Circuit: XOR2 seed characterization sample 4223046

Doing analysis at TEMP = 53.026800 and TNOM = 27.000000

Using SPARSE 1.3 as Direct Linear Solver

Initial Transient Solution
--------------------------

Node                                   Voltage
----                                   -------
vdd                                    1.68455
in                                           0
b                                      1.68455
abar                                   1.68455
bbar                               1.21042e-09
out                                    1.68455
vb#branch                                    0
vin#branch                         1.09442e-11
vdd#branch                        -2.66621e-11

 Reference value :  2.50069e-08
 Reference value :  5.89579e-08
 Reference value :  9.15579e-08
No. of Data Rows : 60041

  Measurements for Transient Analysis

tphl                =  3.55185e-10 targ=  2.57465e-09 trig=  2.21947e-09
tplh                =  4.06776e-10 targ=  2.30652e-08 trig=  2.26584e-08
i_vdd_avg           =  -6.94213e-06 from=  5.00000e-09 to=  1.10001e-07
power_avg_uw        =  1.16944e+01


Total analysis time (seconds) = 0.869341

Total elapsed time (seconds) = 0.950 

Total DRAM available = 16384.000 MB.
DRAM currently available =   96.484 MB.
Maximum ngspice program size =   13.578 MB.
Current ngspice program size =   13.578 MB.

