
Note: No compatibility mode selected!


Circuit: XOR2 seed characterization sample 4223003

Doing analysis at TEMP = 65.880200 and TNOM = 27.000000

Using SPARSE 1.3 as Direct Linear Solver

Initial Transient Solution
--------------------------

Node                                   Voltage
----                                   -------
vdd                                    1.90196
in                                           0
b                                      1.90196
abar                                   1.90196
bbar                               5.46166e-09
out                                    1.90196
vb#branch                                    0
vin#branch                         6.24686e-12
vdd#branch                        -1.92817e-11

 Reference value :  2.68347e-08
 Reference value :  6.18689e-08
 Reference value :  9.56209e-08
No. of Data Rows : 60044

  Measurements for Transient Analysis

tphl                =  5.30444e-10 targ=  2.76738e-09 trig=  2.23694e-09
tplh                =  6.07403e-10 targ=  2.33182e-08 trig=  2.27108e-08
i_vdd_avg           =  -3.55070e-06 from=  5.00000e-09 to=  1.10001e-07
power_avg_uw        =  6.75329e+00


Total analysis time (seconds) = 0.850453

Total elapsed time (seconds) = 0.922 

Total DRAM available = 16384.000 MB.
DRAM currently available =  123.172 MB.
Maximum ngspice program size =   12.578 MB.
Current ngspice program size =   12.469 MB.

