
Note: No compatibility mode selected!


Circuit: NOR2 seed characterization sample 4223036

Doing analysis at TEMP = 1.510410 and TNOM = 27.000000

Using SPARSE 1.3 as Direct Linear Solver

Initial Transient Solution
--------------------------

Node                                   Voltage
----                                   -------
vdd                                    1.80463
in                                           0
out                                    1.80463
pmid                                   1.80463
vin#branch                                   0
vdd#branch                        -3.66779e-12

 Reference value :  4.46825e-08
 Reference value :  1.03618e-07
No. of Data Rows : 60044

  Measurements for Transient Analysis

tphl                =  1.66707e-10 targ=  2.24847e-09 trig=  2.08177e-09
tplh                =  7.27202e-10 targ=  2.29725e-08 trig=  2.22453e-08
i_vdd_avg           =  -2.60069e-06 from=  5.00000e-09 to=  1.10000e-07
power_avg_uw        =  4.69328e+00


Total analysis time (seconds) = 0.497432

Total elapsed time (seconds) = 0.571 

Total DRAM available = 16384.000 MB.
DRAM currently available =  134.297 MB.
Maximum ngspice program size =   12.562 MB.
Current ngspice program size =   11.875 MB.

