
Note: No compatibility mode selected!


Circuit: INV seed characterization sample 4223008

Doing analysis at TEMP = -5.575570 and TNOM = 27.000000

Using SPARSE 1.3 as Direct Linear Solver

Initial Transient Solution
--------------------------

Node                                   Voltage
----                                   -------
vdd                                    1.73052
in                                           0
out                                    1.73052
vin#branch                                   0
vdd#branch                        -1.74961e-12

 Reference value :  6.11150e-08
No. of Data Rows : 60044

  Measurements for Transient Analysis

tphl                =  4.68573e-10 targ=  2.58357e-09 trig=  2.11500e-09
tplh                =  4.85130e-10 targ=  2.28301e-08 trig=  2.23450e-08
i_vdd_avg           =  -3.98447e-06 from=  5.00000e-09 to=  1.10001e-07
power_avg_uw        =  6.89521e+00


Total analysis time (seconds) = 0.338033

Total elapsed time (seconds) = 0.419 

Total DRAM available = 16384.000 MB.
DRAM currently available =  141.844 MB.
Maximum ngspice program size =   12.562 MB.
Current ngspice program size =   11.844 MB.

