
Note: No compatibility mode selected!


Circuit: XOR2 seed characterization sample 4223010

Doing analysis at TEMP = 75.540400 and TNOM = 27.000000

Using SPARSE 1.3 as Direct Linear Solver

Initial Transient Solution
--------------------------

Node                                   Voltage
----                                   -------
vdd                                    1.88006
in                                           0
b                                      1.88006
abar                                   1.88006
bbar                               4.26382e-09
out                                    1.88006
vb#branch                                    0
vin#branch                         1.80593e-11
vdd#branch                         -3.9861e-11

 Reference value :  2.73532e-08
 Reference value :  6.30952e-08
 Reference value :  9.89221e-08
No. of Data Rows : 60047

  Measurements for Transient Analysis

tphl                =  3.53967e-10 targ=  2.40052e-09 trig=  2.04655e-09
tplh                =  3.53303e-10 targ=  2.24930e-08 trig=  2.21397e-08
i_vdd_avg           =  -4.67790e-06 from=  5.00000e-09 to=  1.10001e-07
power_avg_uw        =  8.79474e+00


Total analysis time (seconds) = 0.807851

Total elapsed time (seconds) = 0.878 

Total DRAM available = 16384.000 MB.
DRAM currently available =  138.391 MB.
Maximum ngspice program size =   12.578 MB.
Current ngspice program size =   11.719 MB.

