
Note: No compatibility mode selected!


Circuit: XOR2 seed characterization sample 4223043

Doing analysis at TEMP = 92.706100 and TNOM = 27.000000

Using SPARSE 1.3 as Direct Linear Solver

Initial Transient Solution
--------------------------

Node                                   Voltage
----                                   -------
vdd                                    1.83088
in                                           0
b                                      1.83088
abar                                   1.83088
bbar                               6.98077e-09
out                                    1.83088
vb#branch                                    0
vin#branch                         5.46503e-11
vdd#branch                        -1.04638e-10

 Reference value :  2.71812e-08
 Reference value :  6.29232e-08
 Reference value :  9.94421e-08
No. of Data Rows : 60047

  Measurements for Transient Analysis

tphl                =  2.70713e-10 targ=  2.39526e-09 trig=  2.12454e-09
tplh                =  2.98525e-10 targ=  2.26722e-08 trig=  2.23736e-08
i_vdd_avg           =  -3.35661e-06 from=  5.00000e-09 to=  1.10001e-07
power_avg_uw        =  6.14555e+00


Total analysis time (seconds) = 0.80166

Total elapsed time (seconds) = 0.872 

Total DRAM available = 16384.000 MB.
DRAM currently available =  127.141 MB.
Maximum ngspice program size =   13.297 MB.
Current ngspice program size =   13.297 MB.

