
Note: No compatibility mode selected!


Circuit: NAND2 seed characterization sample 4223014

Doing analysis at TEMP = 37.879700 and TNOM = 27.000000

Using SPARSE 1.3 as Direct Linear Solver

Initial Transient Solution
--------------------------

Node                                   Voltage
----                                   -------
vdd                                    1.77466
in                                           0
out                                    1.77466
nmid                                 0.0300015
vin#branch                                   0
vdd#branch                        -1.89796e-12

 Reference value :  4.56067e-08
 Reference value :  1.05512e-07
No. of Data Rows : 60044

  Measurements for Transient Analysis

tphl                =  4.82436e-10 targ=  2.58231e-09 trig=  2.09987e-09
tplh                =  1.82834e-10 targ=  2.24824e-08 trig=  2.22996e-08
i_vdd_avg           =  -1.47771e-06 from=  5.00000e-09 to=  1.10000e-07
power_avg_uw        =  2.62244e+00


Total analysis time (seconds) = 0.480242

Total elapsed time (seconds) = 0.552 

Total DRAM available = 16384.000 MB.
DRAM currently available =  146.000 MB.
Maximum ngspice program size =   12.562 MB.
Current ngspice program size =   11.656 MB.

