
Note: No compatibility mode selected!


Circuit: NOR2 seed characterization sample 4223012

Doing analysis at TEMP = 14.133600 and TNOM = 27.000000

Using SPARSE 1.3 as Direct Linear Solver

Initial Transient Solution
--------------------------

Node                                   Voltage
----                                   -------
vdd                                    1.83991
in                                           0
out                                    1.83991
pmid                                   1.83991
vin#branch                                   0
vdd#branch                        -3.80611e-12

 Reference value :  3.97478e-08
 Reference value :  1.00601e-07
No. of Data Rows : 60044

  Measurements for Transient Analysis

tphl                =  1.96575e-10 targ=  2.34078e-09 trig=  2.14421e-09
tplh                =  7.89599e-10 targ=  2.32222e-08 trig=  2.24326e-08
i_vdd_avg           =  -1.90261e-06 from=  5.00000e-09 to=  1.10002e-07
power_avg_uw        =  3.50063e+00


Total analysis time (seconds) = 0.482196

Total elapsed time (seconds) = 0.577 

Total DRAM available = 16384.000 MB.
DRAM currently available =  139.594 MB.
Maximum ngspice program size =   13.375 MB.
Current ngspice program size =   12.188 MB.

