
Note: No compatibility mode selected!


Circuit: NAND2 seed characterization sample 4223033

Doing analysis at TEMP = 79.740600 and TNOM = 27.000000

Using SPARSE 1.3 as Direct Linear Solver

Initial Transient Solution
--------------------------

Node                                   Voltage
----                                   -------
vdd                                    1.66993
in                                           0
out                                    1.66993
nmid                                 0.0497284
vin#branch                                   0
vdd#branch                        -5.44439e-12

 Reference value :  4.55632e-08
 Reference value :  1.05323e-07
No. of Data Rows : 60044

  Measurements for Transient Analysis

tphl                =  5.56559e-10 targ=  2.74566e-09 trig=  2.18910e-09
tplh                =  3.13233e-10 targ=  2.28805e-08 trig=  2.25673e-08
i_vdd_avg           =  -5.00747e-06 from=  5.00000e-09 to=  1.10001e-07
power_avg_uw        =  8.36212e+00


Total analysis time (seconds) = 0.488752

Total elapsed time (seconds) = 0.561 

Total DRAM available = 16384.000 MB.
DRAM currently available =  113.266 MB.
Maximum ngspice program size =   12.562 MB.
Current ngspice program size =   11.719 MB.

