
Note: No compatibility mode selected!


Circuit: NAND2 seed characterization sample 4223042

Doing analysis at TEMP = 23.454300 and TNOM = 27.000000

Using SPARSE 1.3 as Direct Linear Solver

Initial Transient Solution
--------------------------

Node                                   Voltage
----                                   -------
vdd                                    1.69544
in                                           0
out                                    1.69544
nmid                                 0.0277104
vin#branch                                   0
vdd#branch                        -1.80937e-12

 Reference value :  4.88972e-08
 Reference value :  1.12249e-07
No. of Data Rows : 60044

  Measurements for Transient Analysis

tphl                =  3.20566e-10 targ=  2.45364e-09 trig=  2.13308e-09
tplh                =  1.73580e-10 targ=  2.25728e-08 trig=  2.23992e-08
i_vdd_avg           =  -2.48212e-06 from=  5.00000e-09 to=  1.10001e-07
power_avg_uw        =  4.20829e+00


Total analysis time (seconds) = 0.457451

Total elapsed time (seconds) = 0.526 

Total DRAM available = 16384.000 MB.
DRAM currently available =  135.594 MB.
Maximum ngspice program size =   12.562 MB.
Current ngspice program size =   11.875 MB.

