
Note: No compatibility mode selected!


Circuit: NOR2 seed characterization sample 4223024

Doing analysis at TEMP = 26.433300 and TNOM = 27.000000

Using SPARSE 1.3 as Direct Linear Solver

Initial Transient Solution
--------------------------

Node                                   Voltage
----                                   -------
vdd                                    1.70039
in                                           0
out                                    1.70039
pmid                                   1.70039
vin#branch                                   0
vdd#branch                        -4.35104e-12

 Reference value :  4.61936e-08
 Reference value :  1.06460e-07
No. of Data Rows : 60041

  Measurements for Transient Analysis

tphl                =  1.65350e-10 targ=  2.33467e-09 trig=  2.16932e-09
tplh                =  7.14942e-10 targ=  2.32229e-08 trig=  2.25080e-08
i_vdd_avg           =  -3.61609e-06 from=  5.00000e-09 to=  1.10000e-07
power_avg_uw        =  6.14876e+00


Total analysis time (seconds) = 0.483154

Total elapsed time (seconds) = 0.552 

Total DRAM available = 16384.000 MB.
DRAM currently available =  151.141 MB.
Maximum ngspice program size =   12.562 MB.
Current ngspice program size =   11.656 MB.

