
Note: No compatibility mode selected!


Circuit: INV seed characterization sample 4223017

Doing analysis at TEMP = 47.067600 and TNOM = 27.000000

Using SPARSE 1.3 as Direct Linear Solver

Initial Transient Solution
--------------------------

Node                                   Voltage
----                                   -------
vdd                                    1.62117
in                                           0
out                                    1.62117
vin#branch                                   0
vdd#branch                        -2.93291e-12

 Reference value :  7.43557e-08
No. of Data Rows : 60044

  Measurements for Transient Analysis

tphl                =  4.20203e-10 targ=  2.62437e-09 trig=  2.20417e-09
tplh                =  6.53579e-10 targ=  2.32661e-08 trig=  2.26125e-08
i_vdd_avg           =  -4.22320e-06 from=  5.00000e-09 to=  1.10002e-07
power_avg_uw        =  6.84653e+00


Total analysis time (seconds) = 0.287915

Total elapsed time (seconds) = 0.356 

Total DRAM available = 16384.000 MB.
DRAM currently available =  147.406 MB.
Maximum ngspice program size =   12.562 MB.
Current ngspice program size =   11.625 MB.

