
Note: No compatibility mode selected!


Circuit: NOR2 seed characterization sample 4223023

Doing analysis at TEMP = 24.741400 and TNOM = 27.000000

Using SPARSE 1.3 as Direct Linear Solver

Initial Transient Solution
--------------------------

Node                                   Voltage
----                                   -------
vdd                                     1.7225
in                                           0
out                                     1.7225
pmid                                    1.7225
vin#branch                                   0
vdd#branch                         -4.4372e-12

 Reference value :  4.67536e-08
 Reference value :  1.08088e-07
No. of Data Rows : 60041

  Measurements for Transient Analysis

tphl                =  1.70623e-10 targ=  2.29994e-09 trig=  2.12931e-09
tplh                =  5.23007e-10 targ=  2.29110e-08 trig=  2.23879e-08
i_vdd_avg           =  -5.51679e-06 from=  5.00000e-09 to=  1.10000e-07
power_avg_uw        =  9.50267e+00


Total analysis time (seconds) = 0.47459

Total elapsed time (seconds) = 0.544 

Total DRAM available = 16384.000 MB.
DRAM currently available =  151.141 MB.
Maximum ngspice program size =   12.562 MB.
Current ngspice program size =   11.781 MB.

