
Note: No compatibility mode selected!


Circuit: XOR2 seed characterization sample 4223047

Doing analysis at TEMP = -5.422370 and TNOM = 27.000000

Using SPARSE 1.3 as Direct Linear Solver

Initial Transient Solution
--------------------------

Node                                   Voltage
----                                   -------
vdd                                    1.85485
in                                           0
b                                      1.85485
abar                                   1.85485
bbar                               9.25622e-10
out                                    1.85485
vb#branch                                    0
vin#branch                         1.93896e-12
vdd#branch                        -1.13208e-11

 Reference value :  2.43712e-08
 Reference value :  5.82401e-08
 Reference value :  9.07381e-08
No. of Data Rows : 60047

  Measurements for Transient Analysis

tphl                =  2.41298e-10 targ=  2.34185e-09 trig=  2.10055e-09
tplh                =  3.11120e-10 targ=  2.26128e-08 trig=  2.23017e-08
i_vdd_avg           =  -6.48107e-06 from=  5.00000e-09 to=  1.10001e-07
power_avg_uw        =  1.20214e+01


Total analysis time (seconds) = 0.872411

Total elapsed time (seconds) = 0.954 

Total DRAM available = 16384.000 MB.
DRAM currently available =   98.906 MB.
Maximum ngspice program size =   12.875 MB.
Current ngspice program size =   12.703 MB.

