
Note: No compatibility mode selected!


Circuit: NAND2 seed characterization sample 4223011

Doing analysis at TEMP = 84.394700 and TNOM = 27.000000

Using SPARSE 1.3 as Direct Linear Solver

Initial Transient Solution
--------------------------

Node                                   Voltage
----                                   -------
vdd                                    1.84139
in                                           0
out                                    1.84139
nmid                                 0.0532663
vin#branch                                   0
vdd#branch                        -6.23474e-12

 Reference value :  4.25010e-08
 Reference value :  1.05549e-07
No. of Data Rows : 60044

  Measurements for Transient Analysis

tphl                =  4.98366e-10 targ=  2.58839e-09 trig=  2.09002e-09
tplh                =  1.66193e-10 targ=  2.24363e-08 trig=  2.22701e-08
i_vdd_avg           =  -5.35011e-06 from=  5.00000e-09 to=  1.10001e-07
power_avg_uw        =  9.85164e+00


Total analysis time (seconds) = 0.462624

Total elapsed time (seconds) = 0.553 

Total DRAM available = 16384.000 MB.
DRAM currently available =  139.594 MB.
Maximum ngspice program size =   13.172 MB.
Current ngspice program size =   12.047 MB.

