
Note: No compatibility mode selected!


Circuit: GF180MCU library cell mux2_1 I0_to_Z__I1=0,S=0

Doing analysis at TEMP = 123.961680 and TNOM = 27.000000

Using SPARSE 1.3 as Direct Linear Solver

Initial Transient Solution
--------------------------

Node                                   Voltage
----                                   -------
vdd                                    1.78587
i0                                           0
i1                                           0
s                                            0
xu1.int04                              1.78587
z                                  1.68718e-08
xu1.net_1                            0.0503595
xu1.net_3                              1.33729
xu1.sel1_n                             1.78587
xu1.net_0                              1.78587
xu1.net_2                              1.78587
vfix_s#branch                                0
vfix_i1#branch                               0
vin#branch                                   0
vdd#branch                        -1.10931e-10

 Reference value :  4.46276e-08
 Reference value :  1.00043e-07
 Reference value :  1.55943e-07
 Reference value :  2.12798e-07
 Reference value :  2.66703e-07
 Reference value :  3.20928e-07
No. of Data Rows : 68032

  Measurements for Transient Analysis

tplh                =  7.09689e-09 targ=  3.56194e-08 trig=  2.85225e-08
tphl                =  5.65209e-09 targ=  1.13220e-07 trig=  1.07568e-07
i_vdd_avg           =  -1.98071e-06 from=  1.00000e-08 to=  3.30003e-07
power_avg_uw        =  3.53731e+00


Total analysis time (seconds) = 3.4043

Total elapsed time (seconds) = 3.470 

Total DRAM available = 16384.000 MB.
DRAM currently available =  113.984 MB.
Maximum ngspice program size =   15.375 MB.
Current ngspice program size =   15.375 MB.

