
Note: No compatibility mode selected!


Circuit: GF180MCU library cell oai21_1 A1_to_ZN__A2=0,B=1

Doing analysis at TEMP = 52.092229 and TNOM = 27.000000

Using SPARSE 1.3 as Direct Linear Solver

Initial Transient Solution
--------------------------

Node                                   Voltage
----                                   -------
vdd                                    1.80584
a1                                           0
a2                                           0
b                                      1.80584
zn                                     1.80584
xu1.net_0                          3.16978e-09
xu1.net_1                              1.80584
vfix_b#branch                                0
vfix_a2#branch                               0
vin#branch                                   0
vdd#branch                        -4.15446e-12

 Reference value :  7.90997e-08
 Reference value :  1.78677e-07
 Reference value :  2.83002e-07
No. of Data Rows : 68030

  Measurements for Transient Analysis

tphl                =  4.29853e-09 targ=  3.16171e-08 trig=  2.73186e-08
tplh                =  9.56732e-09 targ=  1.13523e-07 trig=  1.03956e-07
i_vdd_avg           =  -1.25049e-06 from=  1.00000e-08 to=  3.30002e-07
power_avg_uw        =  2.25817e+00


Total analysis time (seconds) = 1.73924

Total elapsed time (seconds) = 1.803 

Total DRAM available = 16384.000 MB.
DRAM currently available =  139.938 MB.
Maximum ngspice program size =   14.875 MB.
Current ngspice program size =   14.875 MB.

