
Note: No compatibility mode selected!


Circuit: GF180MCU library cell nand3_1 A1_to_ZN__A2=1,A3=1

Doing analysis at TEMP = 25.286959 and TNOM = 27.000000

Using SPARSE 1.3 as Direct Linear Solver

Initial Transient Solution
--------------------------

Node                                   Voltage
----                                   -------
vdd                                    1.75559
a1                                           0
a2                                     1.75559
a3                                     1.75559
xu1.net_1                          1.93686e-10
xu1.net_0                          3.87373e-10
zn                                     1.75559
vfix_a3#branch                               0
vfix_a2#branch                               0
vin#branch                                   0
vdd#branch                        -1.79871e-12

 Reference value :  7.67831e-08
 Reference value :  1.72174e-07
 Reference value :  2.73343e-07
No. of Data Rows : 68032

  Measurements for Transient Analysis

tphl                =  9.04363e-09 targ=  3.83614e-08 trig=  2.93178e-08
tplh                =  1.11184e-08 targ=  1.21072e-07 trig=  1.09953e-07
i_vdd_avg           =  -1.98377e-06 from=  1.00000e-08 to=  3.30004e-07
power_avg_uw        =  3.48268e+00


Total analysis time (seconds) = 1.81053

Total elapsed time (seconds) = 1.875 

Total DRAM available = 16384.000 MB.
DRAM currently available =  129.734 MB.
Maximum ngspice program size =   16.734 MB.
Current ngspice program size =   16.734 MB.

