
Note: No compatibility mode selected!


Circuit: GF180MCU library cell inv_4 I_to_ZN

Doing analysis at TEMP = -29.547308 and TNOM = 27.000000

Using SPARSE 1.3 as Direct Linear Solver

Initial Transient Solution
--------------------------

Node                                   Voltage
----                                   -------
vdd                                    1.77742
i                                            0
zn                                     1.77742
vin#branch                                   0
vdd#branch                        -7.15019e-12

 Reference value :  5.59753e-08
 Reference value :  1.39403e-07
 Reference value :  2.23185e-07
 Reference value :  3.05883e-07
No. of Data Rows : 68034

  Measurements for Transient Analysis

tphl                =  2.85555e-09 targ=  3.26244e-08 trig=  2.97689e-08
tplh                =  5.22596e-09 targ=  1.16533e-07 trig=  1.11307e-07
i_vdd_avg           =  -2.31289e-06 from=  1.00000e-08 to=  3.30003e-07
power_avg_uw        =  4.11098e+00


Total analysis time (seconds) = 2.27792

Total elapsed time (seconds) = 2.374 

Total DRAM available = 16384.000 MB.
DRAM currently available =  108.266 MB.
Maximum ngspice program size =   17.938 MB.
Current ngspice program size =   17.938 MB.

