
Note: No compatibility mode selected!


Circuit: GF180MCU library cell nand3_1 A1_to_ZN__A2=1,A3=1

Doing analysis at TEMP = 121.831780 and TNOM = 27.000000

Using SPARSE 1.3 as Direct Linear Solver

Initial Transient Solution
--------------------------

Node                                   Voltage
----                                   -------
vdd                                     1.7202
a1                                           0
a2                                      1.7202
a3                                      1.7202
xu1.net_1                          1.06031e-07
xu1.net_0                          2.12062e-07
zn                                      1.7202
vfix_a3#branch                               0
vfix_a2#branch                               0
vin#branch                                   0
vdd#branch                        -1.56318e-11

 Reference value :  7.37763e-08
 Reference value :  1.72255e-07
 Reference value :  2.67135e-07
No. of Data Rows : 68032

  Measurements for Transient Analysis

tphl                =  9.82286e-10 targ=  2.67092e-08 trig=  2.57269e-08
tplh                =  1.39903e-09 targ=  1.00580e-07 trig=  9.91807e-08
i_vdd_avg           =  -1.06512e-07 from=  1.00000e-08 to=  3.30000e-07
power_avg_uw        =  1.83221e-01


Total analysis time (seconds) = 1.80562

Total elapsed time (seconds) = 1.877 

Total DRAM available = 16384.000 MB.
DRAM currently available =  108.266 MB.
Maximum ngspice program size =   15.578 MB.
Current ngspice program size =   15.578 MB.

