
Note: No compatibility mode selected!


Circuit: GF180MCU library cell xor2_1 A1_to_Z__A2=0

Doing analysis at TEMP = 65.503669 and TNOM = 27.000000

Using SPARSE 1.3 as Direct Linear Solver

Initial Transient Solution
--------------------------

Node                                   Voltage
----                                   -------
vdd                                    1.68938
a1                                           0
a2                                           0
xu1.i                                  1.68937
z                                  4.48398e-08
xu1.net_0                             1.84e-08
xu1.net_2                              1.68938
xu1.net_1                             0.649736
vfix_a2#branch                               0
vin#branch                                   0
vdd#branch                        -1.51666e-11

 Reference value :  4.54460e-08
 Reference value :  1.09519e-07
 Reference value :  1.77579e-07
 Reference value :  2.40941e-07
 Reference value :  3.07834e-07
No. of Data Rows : 68034

  Measurements for Transient Analysis

tplh                =  1.15490e-09 targ=  2.56941e-08 trig=  2.45392e-08
tphl                =  1.42859e-09 targ=  9.70463e-08 trig=  9.56177e-08
i_vdd_avg           =  -1.44601e-07 from=  1.00000e-08 to=  3.30004e-07
power_avg_uw        =  2.44286e-01


Total analysis time (seconds) = 2.87957

Total elapsed time (seconds) = 2.941 

Total DRAM available = 16384.000 MB.
DRAM currently available =  135.016 MB.
Maximum ngspice program size =   14.250 MB.
Current ngspice program size =   14.250 MB.

