
Note: No compatibility mode selected!


Circuit: GF180MCU library cell xor2_4 A1_to_Z__A2=0

Doing analysis at TEMP = 95.809712 and TNOM = 27.000000

Using SPARSE 1.3 as Direct Linear Solver

Initial Transient Solution
--------------------------

Node                                   Voltage
----                                   -------
vdd                                    1.71212
a1                                           0
a2                                           0
xu1.net_2                            0.0469031
xu1.i                                  1.71212
xu1.net_0                          5.35913e-08
xu1.z_neg                              1.71212
z                                   1.3562e-08
xu1.net_1                              1.71212
vfix_a2#branch                               0
vin#branch                                   0
vdd#branch                        -2.32655e-11

 Reference value :  2.92064e-08
 Reference value :  6.77064e-08
 Reference value :  1.08300e-07
 Reference value :  1.48120e-07
 Reference value :  1.87606e-07
 Reference value :  2.26196e-07
 Reference value :  2.65005e-07
 Reference value :  3.04385e-07
No. of Data Rows : 68032

  Measurements for Transient Analysis

tplh                =  1.64659e-09 targ=  2.69760e-08 trig=  2.53294e-08
tphl                =  2.48600e-09 targ=  1.00474e-07 trig=  9.79883e-08
i_vdd_avg           =  -5.98018e-07 from=  1.00000e-08 to=  3.30000e-07
power_avg_uw        =  1.02388e+00


Total analysis time (seconds) = 4.76204

Total elapsed time (seconds) = 4.825 

Total DRAM available = 16384.000 MB.
DRAM currently available =  104.453 MB.
Maximum ngspice program size =   13.000 MB.
Current ngspice program size =   13.000 MB.

