
Note: No compatibility mode selected!


Circuit: GF180MCU library cell aoi21_4 A1_to_ZN__A2=1,B=0

Doing analysis at TEMP = 36.057060 and TNOM = 27.000000

Using SPARSE 1.3 as Direct Linear Solver

Initial Transient Solution
--------------------------

Node                                   Voltage
----                                   -------
vdd                                    1.76679
a1                                           0
a2                                     1.76679
b                                            0
xu1.net_0_0                        4.71712e-10
zn                                     1.76679
xu1.net_0_1                        4.71712e-10
xu1.net_0_2                        4.71712e-10
xu1.net_0_3                        4.71712e-10
xu1.net_1                              1.76679
vfix_b#branch                                0
vfix_a2#branch                               0
vin#branch                                   0
vdd#branch                         -1.4933e-11

 Reference value :  2.32064e-08
 Reference value :  5.40675e-08
 Reference value :  8.26975e-08
 Reference value :  1.13687e-07
 Reference value :  1.43052e-07
 Reference value :  1.73577e-07
 Reference value :  2.03617e-07
 Reference value :  2.34087e-07
 Reference value :  2.62637e-07
 Reference value :  2.92897e-07
 Reference value :  3.24012e-07
No. of Data Rows : 68032

  Measurements for Transient Analysis

tphl                =  2.02570e-09 targ=  3.10207e-08 trig=  2.89950e-08
tplh                =  4.36570e-09 targ=  1.13351e-07 trig=  1.08985e-07
i_vdd_avg           =  -1.04174e-06 from=  1.00000e-08 to=  3.30002e-07
power_avg_uw        =  1.84054e+00


Total analysis time (seconds) = 6.02929

Total elapsed time (seconds) = 6.100 

Total DRAM available = 16384.000 MB.
DRAM currently available =  137.828 MB.
Maximum ngspice program size =   13.031 MB.
Current ngspice program size =   13.031 MB.

