
Note: No compatibility mode selected!


Circuit: GF180MCU library cell oai21_4 A1_to_ZN__A2=0,B=1

Doing analysis at TEMP = 55.414310 and TNOM = 27.000000

Using SPARSE 1.3 as Direct Linear Solver

Initial Transient Solution
--------------------------

Node                                   Voltage
----                                   -------
vdd                                    1.84053
a1                                           0
a2                                           0
b                                      1.84053
zn                                     1.84053
xu1.net_0                          3.98959e-09
xu1.net_1_0                            1.84053
xu1.net_1_1                            1.84053
xu1.net_1_2                            1.84053
xu1.net_1_3                            1.84053
vfix_b#branch                                0
vfix_a2#branch                               0
vin#branch                                   0
vdd#branch                        -1.74772e-11

 Reference value :  2.16514e-08
 Reference value :  5.27683e-08
 Reference value :  8.34033e-08
 Reference value :  1.12419e-07
 Reference value :  1.42854e-07
 Reference value :  1.72834e-07
 Reference value :  2.03723e-07
 Reference value :  2.32083e-07
 Reference value :  2.61388e-07
 Reference value :  2.90169e-07
 Reference value :  3.24579e-07
No. of Data Rows : 68032

  Measurements for Transient Analysis

tphl                =  2.85546e-09 targ=  3.08733e-08 trig=  2.80179e-08
tplh                =  5.98196e-09 targ=  1.12036e-07 trig=  1.06054e-07
i_vdd_avg           =  -2.38245e-06 from=  1.00000e-08 to=  3.30004e-07
power_avg_uw        =  4.38498e+00


Total analysis time (seconds) = 4.34273

Total elapsed time (seconds) = 4.409 

Total DRAM available = 16384.000 MB.
DRAM currently available =  230.172 MB.
Maximum ngspice program size =   13.719 MB.
Current ngspice program size =   13.719 MB.

