
Note: No compatibility mode selected!


Circuit: GF180MCU library cell aoi21_4 A1_to_ZN__A2=1,B=0

Doing analysis at TEMP = -0.454554 and TNOM = 27.000000

Using SPARSE 1.3 as Direct Linear Solver

Initial Transient Solution
--------------------------

Node                                   Voltage
----                                   -------
vdd                                    1.86406
a1                                           0
a2                                     1.86406
b                                            0
xu1.net_0_0                        1.67966e-11
zn                                     1.86406
xu1.net_0_1                        1.67959e-11
xu1.net_0_2                        1.67966e-11
xu1.net_0_3                        1.67959e-11
xu1.net_1                              1.86406
vfix_b#branch                                0
vfix_a2#branch                               0
vin#branch                                   0
vdd#branch                        -1.50247e-11

 Reference value :  2.52725e-08
 Reference value :  5.41103e-08
 Reference value :  8.42953e-08
 Reference value :  1.15113e-07
 Reference value :  1.45018e-07
 Reference value :  1.76778e-07
 Reference value :  2.05630e-07
 Reference value :  2.34840e-07
 Reference value :  2.65335e-07
 Reference value :  2.94388e-07
 Reference value :  3.23193e-07
No. of Data Rows : 68034

  Measurements for Transient Analysis

tphl                =  1.14912e-09 targ=  2.90155e-08 trig=  2.78664e-08
tplh                =  2.75140e-09 targ=  1.08351e-07 trig=  1.05599e-07
i_vdd_avg           =  -6.47835e-07 from=  1.00000e-08 to=  3.30003e-07
power_avg_uw        =  1.20760e+00


Total analysis time (seconds) = 6.51034

Total elapsed time (seconds) = 6.574 

Total DRAM available = 16384.000 MB.
DRAM currently available =  144.812 MB.
Maximum ngspice program size =   14.969 MB.
Current ngspice program size =   14.969 MB.

