
Note: No compatibility mode selected!


Circuit: GF180MCU library cell aoi21_1 A1_to_ZN__A2=1,B=0

Doing analysis at TEMP = -13.864718 and TNOM = 27.000000

Using SPARSE 1.3 as Direct Linear Solver

Initial Transient Solution
--------------------------

Node                                   Voltage
----                                   -------
vdd                                    1.89827
a1                                           0
a2                                     1.89827
b                                            0
xu1.net_0                          3.92567e-12
zn                                     1.89827
xu1.net_1                              1.89827
vfix_b#branch                                0
vfix_a2#branch                               0
vin#branch                                   0
vdd#branch                         -3.8186e-12

 Reference value :  8.11344e-08
 Reference value :  1.81156e-07
 Reference value :  2.78481e-07
No. of Data Rows : 68030

  Measurements for Transient Analysis

tphl                =  1.74932e-09 targ=  2.74803e-08 trig=  2.57310e-08
tplh                =  3.56459e-09 targ=  1.02757e-07 trig=  9.91929e-08
i_vdd_avg           =  -5.45264e-07 from=  1.00000e-08 to=  3.30001e-07
power_avg_uw        =  1.03506e+00


Total analysis time (seconds) = 1.71317

Total elapsed time (seconds) = 1.778 

Total DRAM available = 16384.000 MB.
DRAM currently available =  103.734 MB.
Maximum ngspice program size =   13.891 MB.
Current ngspice program size =   13.891 MB.

