
Note: No compatibility mode selected!


Circuit: GF180MCU library cell inv_4 I_to_ZN

Doing analysis at TEMP = 16.639334 and TNOM = 27.000000

Using SPARSE 1.3 as Direct Linear Solver

Initial Transient Solution
--------------------------

Node                                   Voltage
----                                   -------
vdd                                     1.9278
i                                            0
zn                                      1.9278
vin#branch                                   0
vdd#branch                        -7.81964e-12

 Reference value :  5.92804e-08
 Reference value :  1.42613e-07
 Reference value :  2.22775e-07
 Reference value :  3.03273e-07
No. of Data Rows : 68034

  Measurements for Transient Analysis

tphl                =  9.30343e-10 targ=  2.86543e-08 trig=  2.77239e-08
tplh                =  2.23747e-09 targ=  1.07409e-07 trig=  1.05172e-07
i_vdd_avg           =  -8.50649e-07 from=  1.00000e-08 to=  3.30003e-07
power_avg_uw        =  1.63988e+00


Total analysis time (seconds) = 2.36776

Total elapsed time (seconds) = 2.431 

Total DRAM available = 16384.000 MB.
DRAM currently available =  123.109 MB.
Maximum ngspice program size =   13.219 MB.
Current ngspice program size =   13.219 MB.

