
Note: No compatibility mode selected!


Circuit: GF180MCU library cell oai21_1 A1_to_ZN__A2=0,B=1

Doing analysis at TEMP = 9.585702 and TNOM = 27.000000

Using SPARSE 1.3 as Direct Linear Solver

Initial Transient Solution
--------------------------

Node                                   Voltage
----                                   -------
vdd                                    1.68011
a1                                           0
a2                                           0
b                                      1.68011
zn                                     1.68011
xu1.net_0                          9.57439e-11
xu1.net_1                              1.68011
vfix_b#branch                                0
vfix_a2#branch                               0
vin#branch                                   0
vdd#branch                        -3.39634e-12

 Reference value :  8.11852e-08
 Reference value :  1.84288e-07
 Reference value :  2.89453e-07
No. of Data Rows : 68034

  Measurements for Transient Analysis

tphl                =  7.62269e-09 targ=  3.68715e-08 trig=  2.92489e-08
tplh                =  1.79623e-08 targ=  1.27709e-07 trig=  1.09747e-07
i_vdd_avg           =  -1.96180e-06 from=  1.00000e-08 to=  3.30003e-07
power_avg_uw        =  3.29604e+00


Total analysis time (seconds) = 1.73467

Total elapsed time (seconds) = 1.799 

Total DRAM available = 16384.000 MB.
DRAM currently available =  125.266 MB.
Maximum ngspice program size =   16.234 MB.
Current ngspice program size =   16.234 MB.

