
Note: No compatibility mode selected!


Circuit: GF180MCU library cell oai21_1 A1_to_ZN__A2=0,B=1

Doing analysis at TEMP = 18.670890 and TNOM = 27.000000

Using SPARSE 1.3 as Direct Linear Solver

Initial Transient Solution
--------------------------

Node                                   Voltage
----                                   -------
vdd                                    1.76929
a1                                           0
a2                                           0
b                                      1.76929
zn                                     1.76929
xu1.net_0                          2.15831e-10
xu1.net_1                              1.76929
vfix_b#branch                                0
vfix_a2#branch                               0
vin#branch                                   0
vdd#branch                        -3.59659e-12

 Reference value :  8.29104e-08
 Reference value :  1.82568e-07
 Reference value :  2.88243e-07
No. of Data Rows : 68034

  Measurements for Transient Analysis

tphl                =  1.80849e-09 targ=  2.62100e-08 trig=  2.44015e-08
tplh                =  4.76715e-09 targ=  9.99715e-08 trig=  9.52044e-08
i_vdd_avg           =  -7.02946e-07 from=  1.00000e-08 to=  3.30003e-07
power_avg_uw        =  1.24371e+00


Total analysis time (seconds) = 1.8069

Total elapsed time (seconds) = 1.870 

Total DRAM available = 16384.000 MB.
DRAM currently available =  115.031 MB.
Maximum ngspice program size =   16.469 MB.
Current ngspice program size =   16.469 MB.

