
Note: No compatibility mode selected!


Circuit: GF180MCU library cell aoi21_1 A1_to_ZN__A2=1,B=0

Doing analysis at TEMP = 45.518569 and TNOM = 27.000000

Using SPARSE 1.3 as Direct Linear Solver

Initial Transient Solution
--------------------------

Node                                   Voltage
----                                   -------
vdd                                    1.84115
a1                                           0
a2                                     1.84115
b                                            0
xu1.net_0                          9.65685e-10
zn                                     1.84115
xu1.net_1                              1.84115
vfix_b#branch                                0
vfix_a2#branch                               0
vin#branch                                   0
vdd#branch                        -4.07623e-12

 Reference value :  7.63853e-08
 Reference value :  1.78998e-07
 Reference value :  2.75498e-07
No. of Data Rows : 68034

  Measurements for Transient Analysis

tphl                =  6.01236e-09 targ=  3.25962e-08 trig=  2.65839e-08
tplh                =  1.47209e-08 targ=  1.16473e-07 trig=  1.01752e-07
i_vdd_avg           =  -2.27381e-06 from=  1.00000e-08 to=  3.30003e-07
power_avg_uw        =  4.18645e+00


Total analysis time (seconds) = 1.94014

Total elapsed time (seconds) = 2.008 

Total DRAM available = 16384.000 MB.
DRAM currently available =  144.812 MB.
Maximum ngspice program size =   15.844 MB.
Current ngspice program size =   15.844 MB.

