
Note: No compatibility mode selected!


Circuit: GF180MCU library cell mux2_1 I0_to_Z__I1=0,S=0

Doing analysis at TEMP = 48.320949 and TNOM = 27.000000

Using SPARSE 1.3 as Direct Linear Solver

Initial Transient Solution
--------------------------

Node                                   Voltage
----                                   -------
vdd                                    1.73481
i0                                           0
i1                                           0
s                                            0
xu1.int04                              1.73481
z                                  1.15819e-08
xu1.net_1                            0.0360018
xu1.net_3                              1.26364
xu1.sel1_n                             1.73481
xu1.net_0                              1.73481
xu1.net_2                              1.73481
vfix_s#branch                                0
vfix_i1#branch                               0
vin#branch                                   0
vdd#branch                        -1.15401e-11

 Reference value :  4.25446e-08
 Reference value :  1.00150e-07
 Reference value :  1.57097e-07
 Reference value :  2.17560e-07
 Reference value :  2.74680e-07
 Reference value :  3.31142e-07
No. of Data Rows : 68030

  Measurements for Transient Analysis

tplh                =  4.27838e-09 targ=  3.40295e-08 trig=  2.97511e-08
tphl                =  4.83093e-09 targ=  1.16084e-07 trig=  1.11253e-07
i_vdd_avg           =  -1.03161e-06 from=  1.00000e-08 to=  3.30002e-07
power_avg_uw        =  1.78965e+00


Total analysis time (seconds) = 3.24654

Total elapsed time (seconds) = 3.311 

Total DRAM available = 16384.000 MB.
DRAM currently available =  125.266 MB.
Maximum ngspice program size =   13.844 MB.
Current ngspice program size =   13.844 MB.

