
Note: No compatibility mode selected!


Circuit: GF180MCU library cell xor2_1 A1_to_Z__A2=0

Doing analysis at TEMP = -14.171453 and TNOM = 27.000000

Using SPARSE 1.3 as Direct Linear Solver

Initial Transient Solution
--------------------------

Node                                   Voltage
----                                   -------
vdd                                    1.80247
a1                                           0
a2                                           0
xu1.i                                  1.80247
z                                  3.30368e-08
xu1.net_0                          8.21533e-11
xu1.net_2                              1.80247
xu1.net_1                             0.819395
vfix_a2#branch                               0
vin#branch                                   0
vdd#branch                        -1.02301e-11

 Reference value :  4.69725e-08
 Reference value :  1.18328e-07
 Reference value :  1.84668e-07
 Reference value :  2.52283e-07
 Reference value :  3.16818e-07
No. of Data Rows : 68032

  Measurements for Transient Analysis

tplh                =  4.85299e-09 targ=  3.43955e-08 trig=  2.95425e-08
tphl                =  3.94650e-09 targ=  1.14574e-07 trig=  1.10628e-07
i_vdd_avg           =  -8.05536e-07 from=  1.00000e-08 to=  3.30003e-07
power_avg_uw        =  1.45196e+00


Total analysis time (seconds) = 2.33259

Total elapsed time (seconds) = 2.395 

Total DRAM available = 16384.000 MB.
DRAM currently available =  151.922 MB.
Maximum ngspice program size =   15.172 MB.
Current ngspice program size =   15.172 MB.

