
Note: No compatibility mode selected!


Circuit: GF180MCU library cell mux2_1 I0_to_Z__I1=0,S=0

Doing analysis at TEMP = 96.786748 and TNOM = 27.000000

Using SPARSE 1.3 as Direct Linear Solver

Initial Transient Solution
--------------------------

Node                                   Voltage
----                                   -------
vdd                                    1.88616
i0                                           0
i1                                           0
s                                            0
xu1.int04                              1.88616
z                                  1.33067e-08
xu1.net_1                             0.049123
xu1.net_3                              1.41627
xu1.sel1_n                             1.88616
xu1.net_0                              1.88616
xu1.net_2                              1.88616
vfix_s#branch                                0
vfix_i1#branch                               0
vin#branch                                   0
vdd#branch                        -4.10507e-11

 Reference value :  3.71695e-08
 Reference value :  9.35795e-08
 Reference value :  1.51186e-07
 Reference value :  2.07769e-07
 Reference value :  2.65086e-07
 Reference value :  3.22091e-07
No. of Data Rows : 68030

  Measurements for Transient Analysis

tplh                =  6.68794e-09 targ=  3.07914e-08 trig=  2.41035e-08
tphl                =  3.88572e-09 targ=  9.81962e-08 trig=  9.43105e-08
i_vdd_avg           =  -2.29350e-06 from=  1.00000e-08 to=  3.30001e-07
power_avg_uw        =  4.32592e+00


Total analysis time (seconds) = 3.33059

Total elapsed time (seconds) = 3.414 

Total DRAM available = 16384.000 MB.
DRAM currently available =   87.484 MB.
Maximum ngspice program size =   17.266 MB.
Current ngspice program size =   17.266 MB.

