
Note: No compatibility mode selected!


Circuit: GF180MCU library cell aoi21_1 A1_to_ZN__A2=1,B=0

Doing analysis at TEMP = 24.886923 and TNOM = 27.000000

Using SPARSE 1.3 as Direct Linear Solver

Initial Transient Solution
--------------------------

Node                                   Voltage
----                                   -------
vdd                                    1.93515
a1                                           0
a2                                     1.93515
b                                            0
xu1.net_0                          1.79054e-10
zn                                     1.93515
xu1.net_1                              1.93515
vfix_b#branch                                0
vfix_a2#branch                               0
vin#branch                                   0
vdd#branch                        -3.97059e-12

 Reference value :  8.22479e-08
 Reference value :  1.82248e-07
 Reference value :  2.85073e-07
No. of Data Rows : 68032

  Measurements for Transient Analysis

tphl                =  4.14449e-09 targ=  2.91022e-08 trig=  2.49577e-08
tplh                =  1.04875e-08 targ=  1.07361e-07 trig=  9.68731e-08
i_vdd_avg           =  -2.04218e-06 from=  1.00000e-08 to=  3.30003e-07
power_avg_uw        =  3.95194e+00


Total analysis time (seconds) = 1.7477

Total elapsed time (seconds) = 1.807 

Total DRAM available = 16384.000 MB.
DRAM currently available =  135.016 MB.
Maximum ngspice program size =   15.562 MB.
Current ngspice program size =   15.562 MB.

