
Note: No compatibility mode selected!


Circuit: GF180MCU library cell xor2_1 A1_to_Z__A2=0

Doing analysis at TEMP = 38.643641 and TNOM = 27.000000

Using SPARSE 1.3 as Direct Linear Solver

Initial Transient Solution
--------------------------

Node                                   Voltage
----                                   -------
vdd                                    1.67562
a1                                           0
a2                                           0
xu1.i                                  1.67562
z                                  4.09636e-08
xu1.net_0                          8.28841e-09
xu1.net_2                              1.67562
xu1.net_1                             0.693286
vfix_a2#branch                               0
vin#branch                                   0
vdd#branch                        -1.06615e-11

 Reference value :  5.28805e-08
 Reference value :  1.20283e-07
 Reference value :  1.86523e-07
 Reference value :  2.52670e-07
 Reference value :  3.23868e-07
No. of Data Rows : 68034

  Measurements for Transient Analysis

tplh                =  9.75742e-09 targ=  3.50989e-08 trig=  2.53415e-08
tphl                =  3.53244e-09 targ=  1.01557e-07 trig=  9.80245e-08
i_vdd_avg           =  -1.19831e-06 from=  1.00000e-08 to=  3.30003e-07
power_avg_uw        =  2.00792e+00


Total analysis time (seconds) = 2.63454

Total elapsed time (seconds) = 2.699 

Total DRAM available = 16384.000 MB.
DRAM currently available =  108.188 MB.
Maximum ngspice program size =   14.828 MB.
Current ngspice program size =   14.828 MB.

