
Note: No compatibility mode selected!


Circuit: GF180MCU library cell inv_4 I_to_ZN

Doing analysis at TEMP = -5.205247 and TNOM = 27.000000

Using SPARSE 1.3 as Direct Linear Solver

Initial Transient Solution
--------------------------

Node                                   Voltage
----                                   -------
vdd                                    1.86034
i                                            0
zn                                     1.86034
vin#branch                                   0
vdd#branch                        -7.48967e-12

 Reference value :  6.16177e-08
 Reference value :  1.40893e-07
 Reference value :  2.23553e-07
 Reference value :  3.06848e-07
No. of Data Rows : 68032

  Measurements for Transient Analysis

tphl                =  9.87647e-10 targ=  2.60178e-08 trig=  2.50301e-08
tplh                =  1.72495e-09 targ=  9.88153e-08 trig=  9.70904e-08
i_vdd_avg           =  -1.72856e-06 from=  1.00000e-08 to=  3.30003e-07
power_avg_uw        =  3.21573e+00


Total analysis time (seconds) = 2.30728

Total elapsed time (seconds) = 2.375 

Total DRAM available = 16384.000 MB.
DRAM currently available =  137.844 MB.
Maximum ngspice program size =   13.922 MB.
Current ngspice program size =   13.922 MB.

