
Note: No compatibility mode selected!


Circuit: GF180MCU library cell aoi21_1 A1_to_ZN__A2=1,B=0

Doing analysis at TEMP = 99.651663 and TNOM = 27.000000

Using SPARSE 1.3 as Direct Linear Solver

Initial Transient Solution
--------------------------

Node                                   Voltage
----                                   -------
vdd                                    1.75681
a1                                           0
a2                                     1.75681
b                                            0
xu1.net_0                          3.28193e-08
zn                                     1.75681
xu1.net_1                              1.75681
vfix_b#branch                                0
vfix_a2#branch                               0
vin#branch                                   0
vdd#branch                        -1.34541e-11

 Reference value :  8.38890e-08
 Reference value :  1.79630e-07
 Reference value :  2.89260e-07
No. of Data Rows : 68030

  Measurements for Transient Analysis

tphl                =  4.74180e-09 targ=  3.22775e-08 trig=  2.75357e-08
tplh                =  1.06047e-08 targ=  1.15212e-07 trig=  1.04607e-07
i_vdd_avg           =  -1.23446e-06 from=  1.00000e-08 to=  3.30000e-07
power_avg_uw        =  2.16871e+00


Total analysis time (seconds) = 1.7622

Total elapsed time (seconds) = 1.824 

Total DRAM available = 16384.000 MB.
DRAM currently available =  145.016 MB.
Maximum ngspice program size =   12.859 MB.
Current ngspice program size =   12.703 MB.

