
Note: No compatibility mode selected!


Circuit: GF180MCU library cell aoi21_4 A1_to_ZN__A2=1,B=0

Doing analysis at TEMP = 63.785184 and TNOM = 27.000000

Using SPARSE 1.3 as Direct Linear Solver

Initial Transient Solution
--------------------------

Node                                   Voltage
----                                   -------
vdd                                    1.92432
a1                                           0
a2                                     1.92432
b                                            0
xu1.net_0_0                        3.50133e-09
zn                                     1.92432
xu1.net_0_1                        3.50133e-09
xu1.net_0_2                        3.50133e-09
xu1.net_0_3                        3.50133e-09
xu1.net_1                              1.92432
vfix_b#branch                                0
vfix_a2#branch                               0
vin#branch                                   0
vdd#branch                         -2.0823e-11

 Reference value :  2.32164e-08
 Reference value :  5.50256e-08
 Reference value :  8.45806e-08
 Reference value :  1.15496e-07
 Reference value :  1.44219e-07
 Reference value :  1.72099e-07
 Reference value :  2.03081e-07
 Reference value :  2.34051e-07
 Reference value :  2.62811e-07
 Reference value :  2.92829e-07
 Reference value :  3.23394e-07
No. of Data Rows : 68034

  Measurements for Transient Analysis

tphl                =  2.74381e-09 targ=  3.23079e-08 trig=  2.95640e-08
tplh                =  5.67701e-09 targ=  1.16369e-07 trig=  1.10692e-07
i_vdd_avg           =  -2.24575e-06 from=  1.00000e-08 to=  3.30004e-07
power_avg_uw        =  4.32152e+00


Total analysis time (seconds) = 6.27071

Total elapsed time (seconds) = 6.339 

Total DRAM available = 16384.000 MB.
DRAM currently available =  145.016 MB.
Maximum ngspice program size =   13.203 MB.
Current ngspice program size =   13.047 MB.

