
Note: No compatibility mode selected!


Circuit: GF180MCU library cell inv_4 I_to_ZN

Doing analysis at TEMP = 103.091270 and TNOM = 27.000000

Using SPARSE 1.3 as Direct Linear Solver

Initial Transient Solution
--------------------------

Node                                   Voltage
----                                   -------
vdd                                    1.65119
i                                            0
zn                                     1.65119
vin#branch                                   0
vdd#branch                        -2.78642e-11

 Reference value :  6.35281e-08
 Reference value :  1.51734e-07
 Reference value :  2.34403e-07
 Reference value :  3.17754e-07
No. of Data Rows : 68032

  Measurements for Transient Analysis

tphl                =  1.96297e-09 targ=  3.08058e-08 trig=  2.88428e-08
tplh                =  3.86588e-09 targ=  1.12394e-07 trig=  1.08528e-07
i_vdd_avg           =  -1.18754e-06 from=  1.00000e-08 to=  3.30004e-07
power_avg_uw        =  1.96085e+00


Total analysis time (seconds) = 2.10468

Total elapsed time (seconds) = 2.171 

Total DRAM available = 16384.000 MB.
DRAM currently available =  101.938 MB.
Maximum ngspice program size =   16.547 MB.
Current ngspice program size =   16.547 MB.

