
Note: No compatibility mode selected!


Circuit: GF180MCU library cell nand3_4 A1_to_ZN__A2=1,A3=1

Doing analysis at TEMP = 13.205952 and TNOM = 27.000000

Using SPARSE 1.3 as Direct Linear Solver

Initial Transient Solution
--------------------------

Node                                   Voltage
----                                   -------
vdd                                    1.66434
a1                                           0
a2                                     1.66434
a3                                     1.66434
xu1.net_1_3                        6.77302e-11
xu1.net_0                           1.3546e-10
xu1.net_1_2                        6.77302e-11
xu1.net_1_1                        6.77302e-11
xu1.net_1_0                        6.77302e-11
xu1.net_0_0                         1.3546e-10
zn                                     1.66434
vfix_a3#branch                               0
vfix_a2#branch                               0
vin#branch                                   0
vdd#branch                        -6.74188e-12

 Reference value :  2.15664e-08
 Reference value :  5.01637e-08
 Reference value :  8.02587e-08
 Reference value :  1.09945e-07
 Reference value :  1.40060e-07
 Reference value :  1.69140e-07
 Reference value :  2.00419e-07
 Reference value :  2.30444e-07
 Reference value :  2.57724e-07
 Reference value :  2.86895e-07
 Reference value :  3.17375e-07
No. of Data Rows : 68032

  Measurements for Transient Analysis

tphl                =  8.97703e-10 targ=  2.71208e-08 trig=  2.62231e-08
tplh                =  1.51941e-09 targ=  1.02189e-07 trig=  1.00669e-07
i_vdd_avg           =  -2.50779e-07 from=  1.00000e-08 to=  3.30005e-07
power_avg_uw        =  4.17382e-01


Total analysis time (seconds) = 6.60347

Total elapsed time (seconds) = 6.673 

Total DRAM available = 16384.000 MB.
DRAM currently available =  121.281 MB.
Maximum ngspice program size =   13.875 MB.
Current ngspice program size =   13.875 MB.

