
Note: No compatibility mode selected!


Circuit: GF180MCU library cell nor2_1 A1_to_ZN__A2=0

Doing analysis at TEMP = -38.066261 and TNOM = 27.000000

Using SPARSE 1.3 as Direct Linear Solver

Initial Transient Solution
--------------------------

Node                                   Voltage
----                                   -------
vdd                                    1.71999
a1                                           0
a2                                           0
zn                                     1.71999
xu1.net_0                              1.71999
vfix_a2#branch                               0
vin#branch                                   0
vdd#branch                        -3.46008e-12

 Reference value :  1.02428e-07
 Reference value :  2.45088e-07
No. of Data Rows : 68032

  Measurements for Transient Analysis

tphl                =  2.40169e-09 targ=  2.96122e-08 trig=  2.72105e-08
tplh                =  4.91112e-09 targ=  1.08542e-07 trig=  1.03631e-07
i_vdd_avg           =  -4.63322e-07 from=  1.00000e-08 to=  3.30004e-07
power_avg_uw        =  7.96909e-01


Total analysis time (seconds) = 1.23625

Total elapsed time (seconds) = 1.308 

Total DRAM available = 16384.000 MB.
DRAM currently available =  146.266 MB.
Maximum ngspice program size =   15.500 MB.
Current ngspice program size =   15.500 MB.

