
Note: No compatibility mode selected!


Circuit: GF180MCU library cell nor2_4 A1_to_ZN__A2=0

Doing analysis at TEMP = 7.991580 and TNOM = 27.000000

Using SPARSE 1.3 as Direct Linear Solver

Initial Transient Solution
--------------------------

Node                                   Voltage
----                                   -------
vdd                                    1.70531
a1                                           0
a2                                           0
zn                                     1.70531
xu1.net_0_0                            1.70531
xu1.net_0_1                            1.70531
xu1.net_0_2                            1.70531
xu1.net_0_3                            1.70531
vfix_a2#branch                               0
vin#branch                                   0
vdd#branch                        -1.37867e-11

 Reference value :  3.25225e-08
 Reference value :  7.79204e-08
 Reference value :  1.22203e-07
 Reference value :  1.65993e-07
 Reference value :  2.08810e-07
 Reference value :  2.53660e-07
 Reference value :  2.99363e-07
No. of Data Rows : 68034

  Measurements for Transient Analysis

tphl                =  3.14211e-09 targ=  3.17060e-08 trig=  2.85639e-08
tplh                =  6.49249e-09 targ=  1.14184e-07 trig=  1.07692e-07
i_vdd_avg           =  -2.17071e-06 from=  1.00000e-08 to=  3.30003e-07
power_avg_uw        =  3.70173e+00


Total analysis time (seconds) = 4.2005

Total elapsed time (seconds) = 4.266 

Total DRAM available = 16384.000 MB.
DRAM currently available =   89.297 MB.
Maximum ngspice program size =   15.984 MB.
Current ngspice program size =   15.984 MB.

