
Note: No compatibility mode selected!


Circuit: GF180MCU library cell inv_1 I_to_ZN

Doing analysis at TEMP = 82.774545 and TNOM = 27.000000

Using SPARSE 1.3 as Direct Linear Solver

Initial Transient Solution
--------------------------

Node                                   Voltage
----                                   -------
vdd                                    1.80525
i                                            0
zn                                     1.80525
vin#branch                                   0
vdd#branch                        -3.66898e-12

 Reference value :  1.77743e-07
No. of Data Rows : 68034

  Measurements for Transient Analysis

tphl                =  1.93290e-09 targ=  2.66918e-08 trig=  2.47589e-08
tplh                =  4.10950e-09 targ=  1.00386e-07 trig=  9.62767e-08
i_vdd_avg           =  -1.18430e-06 from=  1.00000e-08 to=  3.30003e-07
power_avg_uw        =  2.13796e+00


Total analysis time (seconds) = 0.699041

Total elapsed time (seconds) = 0.763 

Total DRAM available = 16384.000 MB.
DRAM currently available =  103.734 MB.
Maximum ngspice program size =   14.984 MB.
Current ngspice program size =   14.984 MB.

