
Note: No compatibility mode selected!


Circuit: GF180MCU library cell nand3_4 A1_to_ZN__A2=1,A3=1

Doing analysis at TEMP = 91.847291 and TNOM = 27.000000

Using SPARSE 1.3 as Direct Linear Solver

Initial Transient Solution
--------------------------

Node                                   Voltage
----                                   -------
vdd                                    1.73818
a1                                           0
a2                                     1.73818
a3                                     1.73818
xu1.net_1_3                        2.11999e-08
xu1.net_0                          4.23998e-08
xu1.net_1_2                        2.11999e-08
xu1.net_1_1                        2.11999e-08
xu1.net_1_0                        2.11999e-08
xu1.net_0_0                        4.23998e-08
zn                                     1.73818
vfix_a3#branch                               0
vfix_a2#branch                               0
vin#branch                                   0
vdd#branch                        -1.90488e-11

 Reference value :  2.44675e-08
 Reference value :  5.61980e-08
 Reference value :  8.66030e-08
 Reference value :  1.18153e-07
 Reference value :  1.49773e-07
 Reference value :  1.80583e-07
 Reference value :  2.11718e-07
 Reference value :  2.42083e-07
 Reference value :  2.71518e-07
 Reference value :  3.02278e-07
 Reference value :  3.32098e-07
No. of Data Rows : 68032

  Measurements for Transient Analysis

tphl                =  2.53692e-09 targ=  3.21247e-08 trig=  2.95877e-08
tplh                =  3.99155e-09 targ=  1.14755e-07 trig=  1.10763e-07
i_vdd_avg           =  -1.05594e-06 from=  1.00000e-08 to=  3.30003e-07
power_avg_uw        =  1.83541e+00


Total analysis time (seconds) = 6.10811

Total elapsed time (seconds) = 6.172 

Total DRAM available = 16384.000 MB.
DRAM currently available =  118.172 MB.
Maximum ngspice program size =   15.359 MB.
Current ngspice program size =   15.359 MB.

