
Note: No compatibility mode selected!


Circuit: GF180MCU library cell xor2_4 A1_to_Z__A2=0

Doing analysis at TEMP = 15.206661 and TNOM = 27.000000

Using SPARSE 1.3 as Direct Linear Solver

Initial Transient Solution
--------------------------

Node                                   Voltage
----                                   -------
vdd                                    1.66248
a1                                           0
a2                                           0
xu1.net_2                            0.0146499
xu1.i                                  1.66248
xu1.net_0                          1.63105e-10
xu1.z_neg                              1.66248
z                                  1.07357e-08
xu1.net_1                              1.66248
vfix_a2#branch                               0
vin#branch                                   0
vdd#branch                        -1.20979e-11

 Reference value :  3.26375e-08
 Reference value :  7.05925e-08
 Reference value :  1.09108e-07
 Reference value :  1.46413e-07
 Reference value :  1.84911e-07
 Reference value :  2.24033e-07
 Reference value :  2.60583e-07
 Reference value :  3.00433e-07
No. of Data Rows : 68032

  Measurements for Transient Analysis

tplh                =  2.19122e-09 targ=  2.66462e-08 trig=  2.44550e-08
tphl                =  2.59701e-09 targ=  9.79621e-08 trig=  9.53651e-08
i_vdd_avg           =  -1.50970e-06 from=  1.00000e-08 to=  3.30003e-07
power_avg_uw        =  2.50985e+00


Total analysis time (seconds) = 4.93716

Total elapsed time (seconds) = 5.008 

Total DRAM available = 16384.000 MB.
DRAM currently available =  129.734 MB.
Maximum ngspice program size =   14.797 MB.
Current ngspice program size =   14.797 MB.

