
Note: No compatibility mode selected!


Circuit: GF180MCU library cell inv_1 I_to_ZN

Doing analysis at TEMP = 99.753258 and TNOM = 27.000000

Using SPARSE 1.3 as Direct Linear Solver

Initial Transient Solution
--------------------------

Node                                   Voltage
----                                   -------
vdd                                    1.89707
i                                            0
zn                                     1.89707
vin#branch                                   0
vdd#branch                        -6.86934e-12

 Reference value :  1.62854e-07
No. of Data Rows : 68034

  Measurements for Transient Analysis

tphl                =  3.35866e-09 targ=  3.02552e-08 trig=  2.68965e-08
tplh                =  6.20600e-09 targ=  1.08896e-07 trig=  1.02690e-07
i_vdd_avg           =  -1.70246e-06 from=  1.00000e-08 to=  3.30004e-07
power_avg_uw        =  3.22968e+00


Total analysis time (seconds) = 0.768992

Total elapsed time (seconds) = 0.844 

Total DRAM available = 16384.000 MB.
DRAM currently available =  144.812 MB.
Maximum ngspice program size =   14.438 MB.
Current ngspice program size =   14.438 MB.

