
Note: No compatibility mode selected!


Circuit: GF180MCU library cell aoi21_4 A1_to_ZN__A2=1,B=0

Doing analysis at TEMP = 83.653029 and TNOM = 27.000000

Using SPARSE 1.3 as Direct Linear Solver

Initial Transient Solution
--------------------------

Node                                   Voltage
----                                   -------
vdd                                    1.84168
a1                                           0
a2                                     1.84168
b                                            0
xu1.net_0_0                        1.27152e-08
zn                                     1.84168
xu1.net_0_1                        1.27152e-08
xu1.net_0_2                        1.27152e-08
xu1.net_0_3                        1.27152e-08
xu1.net_1                              1.84168
vfix_b#branch                                0
vfix_a2#branch                               0
vin#branch                                   0
vdd#branch                        -3.19841e-11

 Reference value :  2.13414e-08
 Reference value :  4.99871e-08
 Reference value :  7.82771e-08
 Reference value :  1.07862e-07
 Reference value :  1.38457e-07
 Reference value :  1.68277e-07
 Reference value :  1.99407e-07
 Reference value :  2.32037e-07
 Reference value :  2.61782e-07
 Reference value :  2.91827e-07
 Reference value :  3.23177e-07
No. of Data Rows : 68032

  Measurements for Transient Analysis

tphl                =  1.71132e-09 targ=  2.78411e-08 trig=  2.61298e-08
tplh                =  3.38541e-09 targ=  1.03775e-07 trig=  1.00389e-07
i_vdd_avg           =  -1.51050e-06 from=  1.00000e-08 to=  3.30002e-07
power_avg_uw        =  2.78185e+00


Total analysis time (seconds) = 6.25847

Total elapsed time (seconds) = 6.328 

Total DRAM available = 16384.000 MB.
DRAM currently available =   71.750 MB.
Maximum ngspice program size =   14.234 MB.
Current ngspice program size =   14.234 MB.

