
Note: No compatibility mode selected!


Circuit: GF180MCU library cell mux2_4 I0_to_Z__I1=0,S=0

Doing analysis at TEMP = -26.708850 and TNOM = 27.000000

Using SPARSE 1.3 as Direct Linear Solver

Initial Transient Solution
--------------------------

Node                                   Voltage
----                                   -------
vdd                                     1.7218
i0                                           0
i1                                           0
s                                            0
xu1.int04                               1.7218
z                                  9.31181e-09
xu1.net_1                           5.9935e-05
xu1.net_3                              1.05711
xu1.sel1_n                              1.7218
xu1.net_0                               1.7218
xu1.net_2                               1.7218
vfix_s#branch                                0
vfix_i1#branch                               0
vin#branch                                   0
vdd#branch                        -1.45902e-11

 Reference value :  2.51775e-08
 Reference value :  6.45233e-08
 Reference value :  1.04633e-07
 Reference value :  1.45329e-07
 Reference value :  1.86388e-07
 Reference value :  2.25058e-07
 Reference value :  2.64818e-07
 Reference value :  3.04859e-07
No. of Data Rows : 68032

  Measurements for Transient Analysis

tplh                =  2.16519e-09 targ=  3.21006e-08 trig=  2.99354e-08
tphl                =  4.09030e-09 targ=  1.15896e-07 trig=  1.11806e-07
i_vdd_avg           =  -2.31117e-07 from=  1.00000e-08 to=  3.30004e-07
power_avg_uw        =  3.97937e-01


Total analysis time (seconds) = 4.7886

Total elapsed time (seconds) = 4.870 

Total DRAM available = 16384.000 MB.
DRAM currently available =  135.016 MB.
Maximum ngspice program size =   16.016 MB.
Current ngspice program size =   16.016 MB.

