
Note: No compatibility mode selected!


Circuit: GF180MCU library cell inv_1 I_to_ZN

Doing analysis at TEMP = 42.976630 and TNOM = 27.000000

Using SPARSE 1.3 as Direct Linear Solver

Initial Transient Solution
--------------------------

Node                                   Voltage
----                                   -------
vdd                                    1.95805
i                                            0
zn                                     1.95805
vin#branch                                   0
vdd#branch                        -2.11323e-12

 Reference value :  1.66115e-07
No. of Data Rows : 68032

  Measurements for Transient Analysis

tphl                =  4.37702e-10 targ=  2.59257e-08 trig=  2.54880e-08
tplh                =  9.77603e-10 targ=  9.94417e-08 trig=  9.84641e-08
i_vdd_avg           =  -1.13135e-07 from=  1.00000e-08 to=  3.30005e-07
power_avg_uw        =  2.21523e-01


Total analysis time (seconds) = 0.730559

Total elapsed time (seconds) = 0.824 

Total DRAM available = 16384.000 MB.
DRAM currently available =   93.297 MB.
Maximum ngspice program size =   17.391 MB.
Current ngspice program size =   17.391 MB.

