
Note: No compatibility mode selected!


Circuit: GF180MCU library cell inv_4 I_to_ZN

Doing analysis at TEMP = 59.139656 and TNOM = 27.000000

Using SPARSE 1.3 as Direct Linear Solver

Initial Transient Solution
--------------------------

Node                                   Voltage
----                                   -------
vdd                                    1.84892
i                                            0
zn                                     1.84892
vin#branch                                   0
vdd#branch                        -9.16193e-12

 Reference value :  5.88669e-08
 Reference value :  1.38211e-07
 Reference value :  2.23277e-07
 Reference value :  3.03216e-07
No. of Data Rows : 68032

  Measurements for Transient Analysis

tphl                =  2.60573e-10 targ=  2.49653e-08 trig=  2.47047e-08
tplh                =  5.23721e-10 targ=  9.66378e-08 trig=  9.61141e-08
i_vdd_avg           =  -2.16914e-07 from=  1.00000e-08 to=  3.30001e-07
power_avg_uw        =  4.01057e-01


Total analysis time (seconds) = 2.16578

Total elapsed time (seconds) = 2.236 

Total DRAM available = 16384.000 MB.
DRAM currently available =  105.672 MB.
Maximum ngspice program size =   13.234 MB.
Current ngspice program size =   13.234 MB.

