
Note: No compatibility mode selected!


Circuit: GF180MCU library cell oai21_4 A1_to_ZN__A2=0,B=1

Doing analysis at TEMP = 77.649071 and TNOM = 27.000000

Using SPARSE 1.3 as Direct Linear Solver

Initial Transient Solution
--------------------------

Node                                   Voltage
----                                   -------
vdd                                    1.87821
a1                                           0
a2                                           0
b                                      1.87821
zn                                     1.87821
xu1.net_0                          1.74328e-08
xu1.net_1_0                            1.87821
xu1.net_1_1                            1.87821
xu1.net_1_2                            1.87821
xu1.net_1_3                            1.87821
vfix_b#branch                                0
vfix_a2#branch                               0
vin#branch                                   0
vdd#branch                        -2.64112e-11

 Reference value :  2.25364e-08
 Reference value :  5.27267e-08
 Reference value :  8.34867e-08
 Reference value :  1.13902e-07
 Reference value :  1.44581e-07
 Reference value :  1.76166e-07
 Reference value :  2.06942e-07
 Reference value :  2.36562e-07
 Reference value :  2.66037e-07
 Reference value :  2.96756e-07
 Reference value :  3.26241e-07
No. of Data Rows : 68032

  Measurements for Transient Analysis

tphl                =  2.76200e-09 targ=  3.25691e-08 trig=  2.98071e-08
tplh                =  6.07641e-09 targ=  1.17498e-07 trig=  1.11421e-07
i_vdd_avg           =  -2.04495e-06 from=  1.00000e-08 to=  3.30001e-07
power_avg_uw        =  3.84083e+00


Total analysis time (seconds) = 6.18571

Total elapsed time (seconds) = 6.248 

Total DRAM available = 16384.000 MB.
DRAM currently available =  146.266 MB.
Maximum ngspice program size =   12.812 MB.
Current ngspice program size =   12.688 MB.

