
Note: No compatibility mode selected!


Circuit: GF180MCU library cell mux2_4 I0_to_Z__I1=0,S=0

Doing analysis at TEMP = 103.675790 and TNOM = 27.000000

Using SPARSE 1.3 as Direct Linear Solver

Initial Transient Solution
--------------------------

Node                                   Voltage
----                                   -------
vdd                                     1.8974
i0                                           0
i1                                           0
s                                            0
xu1.int04                               1.8974
z                                  1.38076e-08
xu1.net_1                            0.0465656
xu1.net_3                              1.38633
xu1.sel1_n                              1.8974
xu1.net_0                               1.8974
xu1.net_2                               1.8974
vfix_s#branch                                0
vfix_i1#branch                               0
vin#branch                                   0
vdd#branch                        -2.93465e-11

 Reference value :  2.90191e-08
 Reference value :  6.81041e-08
 Reference value :  1.07726e-07
 Reference value :  1.45861e-07
 Reference value :  1.84633e-07
 Reference value :  2.22539e-07
 Reference value :  2.62621e-07
 Reference value :  3.03781e-07
No. of Data Rows : 68030

  Measurements for Transient Analysis

tplh                =  1.53443e-09 targ=  2.68852e-08 trig=  2.53508e-08
tphl                =  2.19596e-09 targ=  1.00248e-07 trig=  9.80524e-08
i_vdd_avg           =  -8.51955e-07 from=  1.00000e-08 to=  3.30001e-07
power_avg_uw        =  1.61650e+00


Total analysis time (seconds) = 4.8315

Total elapsed time (seconds) = 4.895 

Total DRAM available = 16384.000 MB.
DRAM currently available =   71.750 MB.
Maximum ngspice program size =   14.078 MB.
Current ngspice program size =   14.078 MB.

