
Note: No compatibility mode selected!


Circuit: GF180MCU library cell oai21_1 A1_to_ZN__A2=0,B=1

Doing analysis at TEMP = -23.179551 and TNOM = 27.000000

Using SPARSE 1.3 as Direct Linear Solver

Initial Transient Solution
--------------------------

Node                                   Voltage
----                                   -------
vdd                                    1.87938
a1                                           0
a2                                           0
b                                      1.87938
zn                                     1.87938
xu1.net_0                          2.64057e-12
xu1.net_1                              1.87938
vfix_b#branch                                0
vfix_a2#branch                               0
vin#branch                                   0
vdd#branch                        -3.77933e-12

 Reference value :  7.66480e-08
 Reference value :  1.87948e-07
 Reference value :  2.84729e-07
No. of Data Rows : 68032

  Measurements for Transient Analysis

tphl                =  2.88998e-09 targ=  2.95602e-08 trig=  2.66703e-08
tplh                =  6.02948e-09 targ=  1.08040e-07 trig=  1.02011e-07
i_vdd_avg           =  -9.36990e-07 from=  1.00000e-08 to=  3.30004e-07
power_avg_uw        =  1.76096e+00


Total analysis time (seconds) = 1.73512

Total elapsed time (seconds) = 1.802 

Total DRAM available = 16384.000 MB.
DRAM currently available =   91.281 MB.
Maximum ngspice program size =   14.094 MB.
Current ngspice program size =   14.094 MB.

