
Note: No compatibility mode selected!


Circuit: GF180MCU library cell aoi21_1 A1_to_ZN__A2=1,B=0

Doing analysis at TEMP = 88.719975 and TNOM = 27.000000

Using SPARSE 1.3 as Direct Linear Solver

Initial Transient Solution
--------------------------

Node                                   Voltage
----                                   -------
vdd                                     1.6921
a1                                           0
a2                                      1.6921
b                                            0
xu1.net_0                          1.79075e-08
zn                                      1.6921
xu1.net_1                               1.6921
vfix_b#branch                                0
vfix_a2#branch                               0
vin#branch                                   0
vdd#branch                        -8.74445e-12

 Reference value :  8.02714e-08
 Reference value :  1.86563e-07
 Reference value :  2.87145e-07
No. of Data Rows : 68032

  Measurements for Transient Analysis

tphl                =  5.18320e-09 targ=  3.46176e-08 trig=  2.94344e-08
tplh                =  1.06646e-08 targ=  1.20968e-07 trig=  1.10303e-07
i_vdd_avg           =  -9.84069e-07 from=  1.00000e-08 to=  3.30000e-07
power_avg_uw        =  1.66514e+00


Total analysis time (seconds) = 1.68587

Total elapsed time (seconds) = 1.748 

Total DRAM available = 16384.000 MB.
DRAM currently available =   98.938 MB.
Maximum ngspice program size =   12.875 MB.
Current ngspice program size =   12.781 MB.

