
Note: No compatibility mode selected!


Circuit: GF180MCU library cell nand3_1 A1_to_ZN__A2=1,A3=1

Doing analysis at TEMP = 71.381460 and TNOM = 27.000000

Using SPARSE 1.3 as Direct Linear Solver

Initial Transient Solution
--------------------------

Node                                   Voltage
----                                   -------
vdd                                    1.94798
a1                                           0
a2                                     1.94798
a3                                     1.94798
xu1.net_1                          5.76539e-09
xu1.net_0                          1.15307e-08
zn                                     1.94798
vfix_a3#branch                               0
vfix_a2#branch                               0
vin#branch                                   0
vdd#branch                        -2.95064e-12

 Reference value :  7.99849e-08
 Reference value :  1.83282e-07
 Reference value :  2.87812e-07
No. of Data Rows : 68030

  Measurements for Transient Analysis

tphl                =  2.17888e-09 targ=  2.84426e-08 trig=  2.62637e-08
tplh                =  2.71346e-09 targ=  1.03505e-07 trig=  1.00791e-07
i_vdd_avg           =  -4.81817e-07 from=  1.00000e-08 to=  3.30002e-07
power_avg_uw        =  9.38569e-01


Total analysis time (seconds) = 1.77238

Total elapsed time (seconds) = 1.833 

Total DRAM available = 16384.000 MB.
DRAM currently available =  113.984 MB.
Maximum ngspice program size =   12.812 MB.
Current ngspice program size =   12.750 MB.

