
Note: No compatibility mode selected!


Circuit: GF180MCU library cell xor2_1 A1_to_Z__A2=0

Doing analysis at TEMP = 93.754814 and TNOM = 27.000000

Using SPARSE 1.3 as Direct Linear Solver

Initial Transient Solution
--------------------------

Node                                   Voltage
----                                   -------
vdd                                    1.92953
a1                                           0
a2                                           0
xu1.i                                  1.92953
z                                  4.83011e-08
xu1.net_0                          2.32255e-08
xu1.net_2                              1.92953
xu1.net_1                             0.663732
vfix_a2#branch                               0
vin#branch                                   0
vdd#branch                         -3.7994e-11

 Reference value :  4.85341e-08
 Reference value :  1.12266e-07
 Reference value :  1.76056e-07
 Reference value :  2.40999e-07
 Reference value :  3.09496e-07
No. of Data Rows : 68030

  Measurements for Transient Analysis

tplh                =  5.79376e-09 targ=  3.28071e-08 trig=  2.70133e-08
tphl                =  3.20526e-09 targ=  1.06245e-07 trig=  1.03040e-07
i_vdd_avg           =  -1.06979e-06 from=  1.00000e-08 to=  3.30001e-07
power_avg_uw        =  2.06419e+00


Total analysis time (seconds) = 2.99126

Total elapsed time (seconds) = 3.058 

Total DRAM available = 16384.000 MB.
DRAM currently available =  144.812 MB.
Maximum ngspice program size =   14.781 MB.
Current ngspice program size =   14.781 MB.

