
Note: No compatibility mode selected!


Circuit: GF180MCU library cell nor2_4 A1_to_ZN__A2=0

Doing analysis at TEMP = 81.167125 and TNOM = 27.000000

Using SPARSE 1.3 as Direct Linear Solver

Initial Transient Solution
--------------------------

Node                                   Voltage
----                                   -------
vdd                                    1.82406
a1                                           0
a2                                           0
zn                                     1.82406
xu1.net_0_0                            1.82406
xu1.net_0_1                            1.82406
xu1.net_0_2                            1.82406
xu1.net_0_3                            1.82406
vfix_a2#branch                               0
vin#branch                                   0
vdd#branch                        -2.87518e-11

 Reference value :  3.39775e-08
 Reference value :  7.94653e-08
 Reference value :  1.26338e-07
 Reference value :  1.71928e-07
 Reference value :  2.16590e-07
 Reference value :  2.60135e-07
 Reference value :  3.06218e-07
No. of Data Rows : 68034

  Measurements for Transient Analysis

tphl                =  7.19433e-12 targ=  2.96161e-08 trig=  2.96089e-08
tplh                =  1.73100e-09 targ=  1.12558e-07 trig=  1.10827e-07
i_vdd_avg           =  -2.38914e-07 from=  1.00000e-08 to=  3.30003e-07
power_avg_uw        =  4.35793e-01


Total analysis time (seconds) = 4.17984

Total elapsed time (seconds) = 4.251 

Total DRAM available = 16384.000 MB.
DRAM currently available =  130.375 MB.
Maximum ngspice program size =   15.094 MB.
Current ngspice program size =   15.094 MB.

