
Note: No compatibility mode selected!


Circuit: GF180MCU library cell xor2_4 A1_to_Z__A2=0

Doing analysis at TEMP = 108.451630 and TNOM = 27.000000

Using SPARSE 1.3 as Direct Linear Solver

Initial Transient Solution
--------------------------

Node                                   Voltage
----                                   -------
vdd                                    1.86502
a1                                           0
a2                                           0
xu1.net_2                            0.0500477
xu1.i                                  1.86502
xu1.net_0                           1.0309e-07
xu1.z_neg                              1.86502
z                                  1.43101e-08
xu1.net_1                              1.86502
vfix_a2#branch                               0
vin#branch                                   0
vdd#branch                        -3.54985e-11

 Reference value :  2.91950e-08
 Reference value :  6.90800e-08
 Reference value :  1.08372e-07
 Reference value :  1.46987e-07
 Reference value :  1.84618e-07
 Reference value :  2.22715e-07
 Reference value :  2.60345e-07
 Reference value :  2.99482e-07
 Reference value :  3.36237e-07
No. of Data Rows : 68030

  Measurements for Transient Analysis

tplh                =  1.47988e-09 targ=  2.75336e-08 trig=  2.60537e-08
tphl                =  2.43315e-09 targ=  1.02594e-07 trig=  1.00161e-07
i_vdd_avg           =  -5.31767e-07 from=  1.00000e-08 to=  3.30002e-07
power_avg_uw        =  9.91758e-01


Total analysis time (seconds) = 4.87662

Total elapsed time (seconds) = 4.948 

Total DRAM available = 16384.000 MB.
DRAM currently available =  135.125 MB.
Maximum ngspice program size =   12.891 MB.
Current ngspice program size =   11.812 MB.

