
Note: No compatibility mode selected!


Circuit: GF180MCU library cell xor2_4 A1_to_Z__A2=0

Doing analysis at TEMP = 58.882964 and TNOM = 27.000000

Using SPARSE 1.3 as Direct Linear Solver

Initial Transient Solution
--------------------------

Node                                   Voltage
----                                   -------
vdd                                    1.94968
a1                                           0
a2                                           0
xu1.net_2                            0.0423498
xu1.i                                  1.94968
xu1.net_0                          4.97539e-09
xu1.z_neg                              1.94968
z                                  1.15787e-08
xu1.net_1                              1.94968
vfix_a2#branch                               0
vin#branch                                   0
vdd#branch                        -1.54946e-11

 Reference value :  2.94025e-08
 Reference value :  6.55699e-08
 Reference value :  1.04935e-07
 Reference value :  1.43787e-07
 Reference value :  1.82232e-07
 Reference value :  2.23940e-07
 Reference value :  2.62700e-07
 Reference value :  3.00337e-07
 Reference value :  3.37187e-07
No. of Data Rows : 68030

  Measurements for Transient Analysis

tplh                =  2.09683e-09 targ=  2.92855e-08 trig=  2.71887e-08
tphl                =  3.20966e-09 targ=  1.06776e-07 trig=  1.03566e-07
i_vdd_avg           =  -1.50363e-06 from=  1.00000e-08 to=  3.30002e-07
power_avg_uw        =  2.93160e+00


Total analysis time (seconds) = 4.96283

Total elapsed time (seconds) = 5.028 

Total DRAM available = 16384.000 MB.
DRAM currently available =  113.984 MB.
Maximum ngspice program size =   13.719 MB.
Current ngspice program size =   13.719 MB.

