
Note: No compatibility mode selected!


Circuit: GF180MCU library cell mux2_1 I0_to_Z__I1=0,S=0

Doing analysis at TEMP = -31.929636 and TNOM = 27.000000

Using SPARSE 1.3 as Direct Linear Solver

Initial Transient Solution
--------------------------

Node                                   Voltage
----                                   -------
vdd                                    1.94034
i0                                           0
i1                                           0
s                                            0
xu1.int04                              1.94034
z                                  8.77867e-09
xu1.net_1                          0.000352726
xu1.net_3                              1.30548
xu1.sel1_n                             1.94034
xu1.net_0                              1.94034
xu1.net_2                              1.94034
vfix_s#branch                                0
vfix_i1#branch                               0
vin#branch                                   0
vdd#branch                        -1.05332e-11

 Reference value :  4.36834e-08
 Reference value :  9.80734e-08
 Reference value :  1.52989e-07
 Reference value :  2.09798e-07
 Reference value :  2.67349e-07
 Reference value :  3.22434e-07
No. of Data Rows : 68032

  Measurements for Transient Analysis

tplh                =  1.74798e-09 targ=  2.86934e-08 trig=  2.69455e-08
tphl                =  2.46508e-09 targ=  1.05301e-07 trig=  1.02836e-07
i_vdd_avg           =  -5.42826e-07 from=  1.00000e-08 to=  3.30004e-07
power_avg_uw        =  1.05327e+00


Total analysis time (seconds) = 3.26004

Total elapsed time (seconds) = 3.321 

Total DRAM available = 16384.000 MB.
DRAM currently available =  104.453 MB.
Maximum ngspice program size =   15.797 MB.
Current ngspice program size =   15.797 MB.

