
Note: No compatibility mode selected!


Circuit: GF180MCU library cell mux2_4 I0_to_Z__I1=0,S=0

Doing analysis at TEMP = 7.660416 and TNOM = 27.000000

Using SPARSE 1.3 as Direct Linear Solver

Initial Transient Solution
--------------------------

Node                                   Voltage
----                                   -------
vdd                                     1.6516
i0                                           0
i1                                           0
s                                            0
xu1.int04                               1.6516
z                                  1.05351e-08
xu1.net_1                           0.00215397
xu1.net_3                              1.06127
xu1.sel1_n                              1.6516
xu1.net_0                               1.6516
xu1.net_2                               1.6516
vfix_s#branch                                0
vfix_i1#branch                               0
vin#branch                                   0
vdd#branch                        -1.41047e-11

 Reference value :  2.88925e-08
 Reference value :  6.64580e-08
 Reference value :  1.06028e-07
 Reference value :  1.44078e-07
 Reference value :  1.82693e-07
 Reference value :  2.21648e-07
 Reference value :  2.61848e-07
 Reference value :  3.02473e-07
No. of Data Rows : 68032

  Measurements for Transient Analysis

tplh                =  3.06756e-09 targ=  2.96703e-08 trig=  2.66027e-08
tphl                =  3.75462e-09 targ=  1.05563e-07 trig=  1.01808e-07
i_vdd_avg           =  -1.53940e-06 from=  1.00000e-08 to=  3.30003e-07
power_avg_uw        =  2.54248e+00


Total analysis time (seconds) = 5.06405

Total elapsed time (seconds) = 5.128 

Total DRAM available = 16384.000 MB.
DRAM currently available =  115.031 MB.
Maximum ngspice program size =   14.609 MB.
Current ngspice program size =   14.609 MB.

