
Note: No compatibility mode selected!


Circuit: GF180MCU library cell mux2_1 I0_to_Z__I1=0,S=0

Doing analysis at TEMP = 3.548605 and TNOM = 27.000000

Using SPARSE 1.3 as Direct Linear Solver

Initial Transient Solution
--------------------------

Node                                   Voltage
----                                   -------
vdd                                    1.63298
i0                                           0
i1                                           0
s                                            0
xu1.int04                              1.63298
z                                  1.04624e-08
xu1.net_1                           0.00769213
xu1.net_3                               1.1156
xu1.sel1_n                             1.63298
xu1.net_0                              1.63298
xu1.net_2                              1.63298
vfix_s#branch                                0
vfix_i1#branch                               0
vin#branch                                   0
vdd#branch                        -8.97693e-12

 Reference value :  3.91059e-08
 Reference value :  9.29709e-08
 Reference value :  1.51459e-07
 Reference value :  2.07201e-07
 Reference value :  2.62481e-07
 Reference value :  3.19244e-07
No. of Data Rows : 68034

  Measurements for Transient Analysis

tplh                =  5.79221e-09 targ=  3.32039e-08 trig=  2.74117e-08
tphl                =  4.76140e-09 targ=  1.08997e-07 trig=  1.04235e-07
i_vdd_avg           =  -1.19188e-06 from=  1.00000e-08 to=  3.30004e-07
power_avg_uw        =  1.94632e+00


Total analysis time (seconds) = 3.39919

Total elapsed time (seconds) = 3.470 

Total DRAM available = 16384.000 MB.
DRAM currently available =  127.000 MB.
Maximum ngspice program size =   15.578 MB.
Current ngspice program size =   15.578 MB.

