
Note: No compatibility mode selected!


Circuit: GF180MCU library cell nand2_4 A1_to_ZN__A2=1

Doing analysis at TEMP = 93.431292 and TNOM = 27.000000

Using SPARSE 1.3 as Direct Linear Solver

Initial Transient Solution
--------------------------

Node                                   Voltage
----                                   -------
vdd                                      1.855
a1                                           0
a2                                       1.855
xu1.net_0_0                        2.25553e-08
zn                                       1.855
xu1.net_0_1                        2.25553e-08
xu1.net_0_2                        2.25553e-08
xu1.net_0_3                        2.25553e-08
vfix_a2#branch                               0
vin#branch                                   0
vdd#branch                        -2.13154e-11

 Reference value :  2.87987e-08
 Reference value :  7.26487e-08
 Reference value :  1.16100e-07
 Reference value :  1.60740e-07
 Reference value :  2.07649e-07
 Reference value :  2.51229e-07
 Reference value :  2.93350e-07
 Reference value :  3.39595e-07
No. of Data Rows : 68032

  Measurements for Transient Analysis

tphl                =  1.94799e-09 targ=  2.82061e-08 trig=  2.62581e-08
tplh                =  2.67705e-09 targ=  1.03451e-07 trig=  1.00774e-07
i_vdd_avg           =  -1.84296e-06 from=  1.00000e-08 to=  3.30005e-07
power_avg_uw        =  3.41869e+00


Total analysis time (seconds) = 4.2502

Total elapsed time (seconds) = 4.333 

Total DRAM available = 16384.000 MB.
DRAM currently available =   68.422 MB.
Maximum ngspice program size =   14.156 MB.
Current ngspice program size =   14.156 MB.

