
Note: No compatibility mode selected!


Circuit: INV seed characterization sample 1

Doing analysis at TEMP = 62.637700 and TNOM = 27.000000

Using SPARSE 1.3 as Direct Linear Solver

Initial Transient Solution
--------------------------

Node                                   Voltage
----                                   -------
vdd                                    1.72166
in                                           0
out                                    1.72166
vin#branch                                   0
vdd#branch                        -2.41375e-12

 Reference value :  5.17901e-08
No. of Data Rows : 60047

  Measurements for Transient Analysis

tphl                =  1.24652e-10 targ=  2.19118e-09 trig=  2.06653e-09
tplh                =  1.34271e-10 targ=  2.23339e-08 trig=  2.21996e-08
i_vdd_avg           =  -1.82776e-06 from=  5.00000e-09 to=  1.10001e-07
power_avg_uw        =  3.14678e+00


Total analysis time (seconds) = 0.366131

Total elapsed time (seconds) = 0.456 

Total DRAM available = 16384.000 MB.
DRAM currently available =  320.344 MB.
Maximum ngspice program size =   14.922 MB.
Current ngspice program size =   14.922 MB.

