
Note: No compatibility mode selected!


Circuit: INV seed characterization sample 3

Doing analysis at TEMP = -5.775610 and TNOM = 27.000000

Using SPARSE 1.3 as Direct Linear Solver

Initial Transient Solution
--------------------------

Node                                   Voltage
----                                   -------
vdd                                    1.88781
in                                           0
out                                    1.88781
vin#branch                                   0
vdd#branch                        -1.91549e-12

 Reference value :  5.18525e-08
No. of Data Rows : 60044

  Measurements for Transient Analysis

tphl                =  2.23973e-10 targ=  2.46973e-09 trig=  2.24576e-09
tplh                =  2.58067e-10 targ=  2.29953e-08 trig=  2.27373e-08
i_vdd_avg           =  -2.19766e-06 from=  5.00000e-09 to=  1.10000e-07
power_avg_uw        =  4.14876e+00


Total analysis time (seconds) = 0.353972

Total elapsed time (seconds) = 0.455 

Total DRAM available = 16384.000 MB.
DRAM currently available =  314.625 MB.
Maximum ngspice program size =   14.469 MB.
Current ngspice program size =   14.469 MB.

