
Note: No compatibility mode selected!


Circuit: INV seed characterization sample 6

Doing analysis at TEMP = 38.689700 and TNOM = 27.000000

Using SPARSE 1.3 as Direct Linear Solver

Initial Transient Solution
--------------------------

Node                                   Voltage
----                                   -------
vdd                                    1.93337
in                                           0
out                                    1.93337
vin#branch                                   0
vdd#branch                        -3.57209e-12

 Reference value :  5.45909e-08
No. of Data Rows : 60044

  Measurements for Transient Analysis

tphl                =  6.03069e-11 targ=  2.07625e-09 trig=  2.01594e-09
tplh                =  6.80933e-11 targ=  2.21159e-08 trig=  2.20478e-08
i_vdd_avg           =  -1.58334e-06 from=  5.00000e-09 to=  1.10001e-07
power_avg_uw        =  3.06119e+00


Total analysis time (seconds) = 0.334717

Total elapsed time (seconds) = 0.422 

Total DRAM available = 16384.000 MB.
DRAM currently available =  314.531 MB.
Maximum ngspice program size =   14.562 MB.
Current ngspice program size =   13.250 MB.

