
Note: No compatibility mode selected!


Circuit: INV seed characterization sample 0

Doing analysis at TEMP = 96.341800 and TNOM = 27.000000

Using SPARSE 1.3 as Direct Linear Solver

Initial Transient Solution
--------------------------

Node                                   Voltage
----                                   -------
vdd                                    1.64306
in                                           0
out                                    1.64306
vin#branch                                   0
vdd#branch                        -1.00484e-10

 Reference value :  4.98894e-08
No. of Data Rows : 60044

  Measurements for Transient Analysis

tphl                =  1.54657e-10 targ=  2.36384e-09 trig=  2.20918e-09
tplh                =  2.26689e-10 targ=  2.28542e-08 trig=  2.26275e-08
i_vdd_avg           =  -2.29061e-06 from=  5.00000e-09 to=  1.10002e-07
power_avg_uw        =  3.76361e+00


Total analysis time (seconds) = 0.368509

Total elapsed time (seconds) = 0.481 

Total DRAM available = 16384.000 MB.
DRAM currently available =  320.344 MB.
Maximum ngspice program size =   14.328 MB.
Current ngspice program size =   14.328 MB.

