
Note: No compatibility mode selected!


Circuit: INV seed characterization sample 9

Doing analysis at TEMP = 82.812400 and TNOM = 27.000000

Using SPARSE 1.3 as Direct Linear Solver

Initial Transient Solution
--------------------------

Node                                   Voltage
----                                   -------
vdd                                    1.63127
in                                           0
out                                    1.63127
vin#branch                                   0
vdd#branch                        -2.49778e-11

 Reference value :  5.28119e-08
No. of Data Rows : 60041

  Measurements for Transient Analysis

tphl                =  2.60447e-10 targ=  2.30488e-09 trig=  2.04444e-09
tplh                =  3.57305e-10 targ=  2.24906e-08 trig=  2.21333e-08
i_vdd_avg           =  -4.49528e-06 from=  5.00000e-09 to=  1.10001e-07
power_avg_uw        =  7.33301e+00


Total analysis time (seconds) = 0.404595

Total elapsed time (seconds) = 0.493 

Total DRAM available = 16384.000 MB.
DRAM currently available =  306.391 MB.
Maximum ngspice program size =   15.516 MB.
Current ngspice program size =   15.516 MB.

