
Note: No compatibility mode selected!


Circuit: NOR2 seed characterization sample 2

Doing analysis at TEMP = 77.768200 and TNOM = 27.000000

Using SPARSE 1.3 as Direct Linear Solver

Initial Transient Solution
--------------------------

Node                                   Voltage
----                                   -------
vdd                                    1.06126
in                                           0
out                                    1.06126
pmid                                   1.06126
vin#branch                                   0
vdd#branch                        -3.28438e-11

 Reference value :  3.41420e-08
No. of Data Rows : 20036

  Measurements for Transient Analysis

tphl                =  1.32227e-10 targ=  1.20471e-09 trig=  1.07248e-09
tplh                =  5.50528e-10 targ=  9.76797e-09 trig=  9.21745e-09
i_vdd_avg           =  -3.81870e-06 from=  2.00000e-09 to=  3.20009e-08
power_avg_uw        =  4.05264e+00


Total analysis time (seconds) = 0.186024

Total elapsed time (seconds) = 0.270 

Total DRAM available = 16384.000 MB.
DRAM currently available =  298.281 MB.
Maximum ngspice program size =   13.688 MB.
Current ngspice program size =   13.375 MB.

