
Note: No compatibility mode selected!


Circuit: INV seed characterization sample 12

Doing analysis at TEMP = 17.180100 and TNOM = 27.000000

Using SPARSE 1.3 as Direct Linear Solver

Initial Transient Solution
--------------------------

Node                                   Voltage
----                                   -------
vdd                                    1.74727
in                                           0
out                                    1.74727
vin#branch                                   0
vdd#branch                        -2.14715e-12

 Reference value :  5.24404e-08
No. of Data Rows : 60047

  Measurements for Transient Analysis

tphl                =  1.19796e-10 targ=  2.18548e-09 trig=  2.06568e-09
tplh                =  1.45721e-10 targ=  2.23428e-08 trig=  2.21970e-08
i_vdd_avg           =  -2.80666e-06 from=  5.00000e-09 to=  1.10002e-07
power_avg_uw        =  4.90400e+00


Total analysis time (seconds) = 0.344358

Total elapsed time (seconds) = 0.434 

Total DRAM available = 16384.000 MB.
DRAM currently available =  316.891 MB.
Maximum ngspice program size =   13.453 MB.
Current ngspice program size =   12.969 MB.

