
Note: No compatibility mode selected!


Circuit: INV seed characterization sample 18

Doing analysis at TEMP = 48.768200 and TNOM = 27.000000

Using SPARSE 1.3 as Direct Linear Solver

Initial Transient Solution
--------------------------

Node                                   Voltage
----                                   -------
vdd                                    1.93857
in                                           0
out                                    1.93857
vin#branch                                   0
vdd#branch                        -6.22357e-12

 Reference value :  5.41232e-08
No. of Data Rows : 60044

  Measurements for Transient Analysis

tphl                =  1.41680e-10 targ=  2.25679e-09 trig=  2.11511e-09
tplh                =  1.84704e-10 targ=  2.25300e-08 trig=  2.23453e-08
i_vdd_avg           =  -3.92462e-06 from=  5.00000e-09 to=  1.10001e-07
power_avg_uw        =  7.60815e+00


Total analysis time (seconds) = 0.345416

Total elapsed time (seconds) = 0.433 

Total DRAM available = 16384.000 MB.
DRAM currently available =  309.562 MB.
Maximum ngspice program size =   16.125 MB.
Current ngspice program size =   16.125 MB.

