
Note: No compatibility mode selected!


Circuit: INV seed characterization sample 14

Doing analysis at TEMP = 13.376600 and TNOM = 27.000000

Using SPARSE 1.3 as Direct Linear Solver

Initial Transient Solution
--------------------------

Node                                   Voltage
----                                   -------
vdd                                    1.66642
in                                           0
out                                    1.66642
vin#branch                                   0
vdd#branch                        -7.64417e-12

 Reference value :  5.17145e-08
No. of Data Rows : 60044

  Measurements for Transient Analysis

tphl                =  1.18206e-10 targ=  2.26596e-09 trig=  2.14775e-09
tplh                =  1.35743e-10 targ=  2.25790e-08 trig=  2.24433e-08
i_vdd_avg           =  -2.47485e-06 from=  5.00000e-09 to=  1.10000e-07
power_avg_uw        =  4.12414e+00


Total analysis time (seconds) = 0.34363

Total elapsed time (seconds) = 0.436 

Total DRAM available = 16384.000 MB.
DRAM currently available =  338.141 MB.
Maximum ngspice program size =   14.172 MB.
Current ngspice program size =   14.172 MB.

