
Note: No compatibility mode selected!


Circuit: INV seed characterization sample 10

Doing analysis at TEMP = 24.452700 and TNOM = 27.000000

Using SPARSE 1.3 as Direct Linear Solver

Initial Transient Solution
--------------------------

Node                                   Voltage
----                                   -------
vdd                                     1.8377
in                                           0
out                                     1.8377
vin#branch                                   0
vdd#branch                        -1.88299e-12

 Reference value :  5.21801e-08
No. of Data Rows : 60047

  Measurements for Transient Analysis

tphl                =  1.70402e-10 targ=  2.26694e-09 trig=  2.09654e-09
tplh                =  2.67820e-10 targ=  2.25574e-08 trig=  2.22896e-08
i_vdd_avg           =  -3.56368e-06 from=  5.00000e-09 to=  1.10001e-07
power_avg_uw        =  6.54898e+00


Total analysis time (seconds) = 0.337485

Total elapsed time (seconds) = 0.431 

Total DRAM available = 16384.000 MB.
DRAM currently available =  306.391 MB.
Maximum ngspice program size =   14.844 MB.
Current ngspice program size =   14.844 MB.

