
Note: No compatibility mode selected!


Circuit: INV seed characterization sample 17

Doing analysis at TEMP = 22.030900 and TNOM = 27.000000

Using SPARSE 1.3 as Direct Linear Solver

Initial Transient Solution
--------------------------

Node                                   Voltage
----                                   -------
vdd                                    1.87594
in                                           0
out                                    1.87594
vin#branch                                   0
vdd#branch                        -9.92717e-12

 Reference value :  4.02909e-08
 Reference value :  1.13035e-07
No. of Data Rows : 60044

  Measurements for Transient Analysis

tphl                =  7.89341e-11 targ=  2.21992e-09 trig=  2.14098e-09
tplh                =  1.15594e-10 targ=  2.25385e-08 trig=  2.24229e-08
i_vdd_avg           =  -1.68804e-06 from=  5.00000e-09 to=  1.10001e-07
power_avg_uw        =  3.16666e+00


Total analysis time (seconds) = 0.622273

Total elapsed time (seconds) = 0.736 

Total DRAM available = 16384.000 MB.
DRAM currently available =  314.891 MB.
Maximum ngspice program size =   17.172 MB.
Current ngspice program size =   17.094 MB.

