
Note: No compatibility mode selected!


Circuit: INV seed characterization sample 16

Doing analysis at TEMP = 3.038670 and TNOM = 27.000000

Using SPARSE 1.3 as Direct Linear Solver

Initial Transient Solution
--------------------------

Node                                   Voltage
----                                   -------
vdd                                    1.85886
in                                           0
out                                    1.85886
vin#branch                                   0
vdd#branch                        -1.87288e-12

 Reference value :  5.33758e-08
No. of Data Rows : 60041

  Measurements for Transient Analysis

tphl                =  3.25501e-10 targ=  2.40889e-09 trig=  2.08339e-09
tplh                =  4.80080e-10 targ=  2.27303e-08 trig=  2.22502e-08
i_vdd_avg           =  -4.16506e-06 from=  5.00000e-09 to=  1.10001e-07
power_avg_uw        =  7.74227e+00


Total analysis time (seconds) = 0.353363

Total elapsed time (seconds) = 0.441 

Total DRAM available = 16384.000 MB.
DRAM currently available =  313.844 MB.
Maximum ngspice program size =   13.141 MB.
Current ngspice program size =   12.094 MB.

