
Note: No compatibility mode selected!


Circuit: INV seed characterization sample 15

Doing analysis at TEMP = -2.276100 and TNOM = 27.000000

Using SPARSE 1.3 as Direct Linear Solver

Initial Transient Solution
--------------------------

Node                                   Voltage
----                                   -------
vdd                                    1.90618
in                                           0
out                                    1.90618
vin#branch                                   0
vdd#branch                        -1.94127e-12

 Reference value :  5.48521e-08
No. of Data Rows : 60047

  Measurements for Transient Analysis

tphl                =  2.01156e-10 targ=  2.44172e-09 trig=  2.24056e-09
tplh                =  2.33199e-10 targ=  2.29549e-08 trig=  2.27217e-08
i_vdd_avg           =  -2.22418e-06 from=  5.00000e-09 to=  1.10001e-07
power_avg_uw        =  4.23969e+00


Total analysis time (seconds) = 0.334097

Total elapsed time (seconds) = 0.421 

Total DRAM available = 16384.000 MB.
DRAM currently available =  338.141 MB.
Maximum ngspice program size =   15.516 MB.
Current ngspice program size =   15.516 MB.

