
Note: No compatibility mode selected!


Circuit: INV seed characterization sample 21

Doing analysis at TEMP = 44.919100 and TNOM = 27.000000

Using SPARSE 1.3 as Direct Linear Solver

Initial Transient Solution
--------------------------

Node                                   Voltage
----                                   -------
vdd                                    1.82841
in                                           0
out                                    1.82841
vin#branch                                   0
vdd#branch                        -5.13412e-12

 Reference value :  4.72761e-08
No. of Data Rows : 60047

  Measurements for Transient Analysis

tphl                =  8.94215e-11 targ=  2.11301e-09 trig=  2.02359e-09
tplh                =  1.15555e-10 targ=  2.21863e-08 trig=  2.20708e-08
i_vdd_avg           =  -2.66025e-06 from=  5.00000e-09 to=  1.10001e-07
power_avg_uw        =  4.86402e+00


Total analysis time (seconds) = 0.360338

Total elapsed time (seconds) = 0.455 

Total DRAM available = 16384.000 MB.
DRAM currently available =  308.172 MB.
Maximum ngspice program size =   14.234 MB.
Current ngspice program size =   14.234 MB.

