
Note: No compatibility mode selected!


Circuit: INV seed characterization sample 26

Doing analysis at TEMP = 30.355000 and TNOM = 27.000000

Using SPARSE 1.3 as Direct Linear Solver

Initial Transient Solution
--------------------------

Node                                   Voltage
----                                   -------
vdd                                    1.87016
in                                           0
out                                    1.87016
vin#branch                                   0
vdd#branch                        -5.02373e-12

 Reference value :  5.51247e-08
No. of Data Rows : 60044

  Measurements for Transient Analysis

tphl                =  6.38712e-10 targ=  2.86655e-09 trig=  2.22784e-09
tplh                =  7.65340e-10 targ=  2.34489e-08 trig=  2.26835e-08
i_vdd_avg           =  -3.94040e-06 from=  5.00000e-09 to=  1.10000e-07
power_avg_uw        =  7.36917e+00


Total analysis time (seconds) = 0.344362

Total elapsed time (seconds) = 0.429 

Total DRAM available = 16384.000 MB.
DRAM currently available =  293.141 MB.
Maximum ngspice program size =   13.484 MB.
Current ngspice program size =   13.484 MB.

