
Note: No compatibility mode selected!


Circuit: INV seed characterization sample 28

Doing analysis at TEMP = 38.212900 and TNOM = 27.000000

Using SPARSE 1.3 as Direct Linear Solver

Initial Transient Solution
--------------------------

Node                                   Voltage
----                                   -------
vdd                                    1.96805
in                                           0
out                                    1.96805
vin#branch                                   0
vdd#branch                        -2.19262e-12

 Reference value :  5.69619e-08
No. of Data Rows : 60041

  Measurements for Transient Analysis

tphl                =  9.33833e-11 targ=  2.28285e-09 trig=  2.18947e-09
tplh                =  1.16294e-10 targ=  2.26847e-08 trig=  2.25684e-08
i_vdd_avg           =  -1.29924e-06 from=  5.00000e-09 to=  1.10001e-07
power_avg_uw        =  2.55697e+00


Total analysis time (seconds) = 0.330331

Total elapsed time (seconds) = 0.415 

Total DRAM available = 16384.000 MB.
DRAM currently available =  292.500 MB.
Maximum ngspice program size =   14.344 MB.
Current ngspice program size =   14.344 MB.

