
Note: No compatibility mode selected!


Circuit: INV seed characterization sample 25

Doing analysis at TEMP = 27.060800 and TNOM = 27.000000

Using SPARSE 1.3 as Direct Linear Solver

Initial Transient Solution
--------------------------

Node                                   Voltage
----                                   -------
vdd                                    1.92105
in                                           0
out                                    1.92105
vin#branch                                   0
vdd#branch                        -1.96817e-12

 Reference value :  5.47291e-08
No. of Data Rows : 60064

  Measurements for Transient Analysis

tphl                =  1.98372e-10 targ=  2.20397e-09 trig=  2.00559e-09
tplh                =  3.33948e-10 targ=  2.23507e-08 trig=  2.20168e-08
i_vdd_avg           =  -4.83337e-06 from=  5.00000e-09 to=  1.10002e-07
power_avg_uw        =  9.28515e+00


Total analysis time (seconds) = 0.346453

Total elapsed time (seconds) = 0.434 

Total DRAM available = 16384.000 MB.
DRAM currently available =  317.062 MB.
Maximum ngspice program size =   13.469 MB.
Current ngspice program size =   12.844 MB.

