
Note: No compatibility mode selected!


Circuit: INV seed characterization sample 24

Doing analysis at TEMP = -7.275650 and TNOM = 27.000000

Using SPARSE 1.3 as Direct Linear Solver

Initial Transient Solution
--------------------------

Node                                   Voltage
----                                   -------
vdd                                    1.92735
in                                           0
out                                    1.92735
vin#branch                                   0
vdd#branch                        -2.00451e-12

 Reference value :  5.38219e-08
No. of Data Rows : 60041

  Measurements for Transient Analysis

tphl                =  6.41398e-11 targ=  2.16558e-09 trig=  2.10144e-09
tplh                =  7.35876e-11 targ=  2.23779e-08 trig=  2.23043e-08
i_vdd_avg           =  -1.43945e-06 from=  5.00000e-09 to=  1.10001e-07
power_avg_uw        =  2.77432e+00


Total analysis time (seconds) = 0.343716

Total elapsed time (seconds) = 0.431 

Total DRAM available = 16384.000 MB.
DRAM currently available =  317.062 MB.
Maximum ngspice program size =   12.812 MB.
Current ngspice program size =   12.266 MB.

