
Note: No compatibility mode selected!


Circuit: INV seed characterization sample 20

Doing analysis at TEMP = 43.017800 and TNOM = 27.000000

Using SPARSE 1.3 as Direct Linear Solver

Initial Transient Solution
--------------------------

Node                                   Voltage
----                                   -------
vdd                                    1.72853
in                                           0
out                                    1.72853
vin#branch                                   0
vdd#branch                        -2.68317e-11

 Reference value :  4.97978e-08
No. of Data Rows : 60041

  Measurements for Transient Analysis

tphl                =  1.25009e-10 targ=  2.34439e-09 trig=  2.21938e-09
tplh                =  1.43156e-10 targ=  2.28013e-08 trig=  2.26582e-08
i_vdd_avg           =  -1.21194e-06 from=  5.00000e-09 to=  1.10001e-07
power_avg_uw        =  2.09488e+00


Total analysis time (seconds) = 0.344991

Total elapsed time (seconds) = 0.441 

Total DRAM available = 16384.000 MB.
DRAM currently available =  290.922 MB.
Maximum ngspice program size =   14.281 MB.
Current ngspice program size =   14.281 MB.

