
Note: No compatibility mode selected!


Circuit: INV seed characterization sample 27

Doing analysis at TEMP = -1.445740 and TNOM = 27.000000

Using SPARSE 1.3 as Direct Linear Solver

Initial Transient Solution
--------------------------

Node                                   Voltage
----                                   -------
vdd                                    1.80407
in                                           0
out                                    1.80407
vin#branch                                   0
vdd#branch                        -1.88948e-12

 Reference value :  5.26940e-08
No. of Data Rows : 60041

  Measurements for Transient Analysis

tphl                =  1.30061e-10 targ=  2.18554e-09 trig=  2.05548e-09
tplh                =  1.53197e-10 targ=  2.23196e-08 trig=  2.21665e-08
i_vdd_avg           =  -3.40368e-06 from=  5.00000e-09 to=  1.10001e-07
power_avg_uw        =  6.14047e+00


Total analysis time (seconds) = 0.336924

Total elapsed time (seconds) = 0.429 

Total DRAM available = 16384.000 MB.
DRAM currently available =  292.500 MB.
Maximum ngspice program size =   13.641 MB.
Current ngspice program size =   13.078 MB.

