
Note: No compatibility mode selected!


Circuit: INV seed characterization sample 29

Doing analysis at TEMP = 51.360100 and TNOM = 27.000000

Using SPARSE 1.3 as Direct Linear Solver

Initial Transient Solution
--------------------------

Node                                   Voltage
----                                   -------
vdd                                    1.69622
in                                           0
out                                    1.69622
vin#branch                                   0
vdd#branch                        -8.03244e-11

 Reference value :  5.28759e-08
No. of Data Rows : 60047

  Measurements for Transient Analysis

tphl                =  6.80639e-11 targ=  2.07879e-09 trig=  2.01073e-09
tplh                =  7.17069e-11 targ=  2.21039e-08 trig=  2.20322e-08
i_vdd_avg           =  -2.86040e-06 from=  5.00000e-09 to=  1.10002e-07
power_avg_uw        =  4.85187e+00


Total analysis time (seconds) = 0.33079

Total elapsed time (seconds) = 0.427 

Total DRAM available = 16384.000 MB.
DRAM currently available =  308.562 MB.
Maximum ngspice program size =   13.031 MB.
Current ngspice program size =   12.453 MB.

