
Note: No compatibility mode selected!


Circuit: INV seed characterization sample 23

Doing analysis at TEMP = -13.612600 and TNOM = 27.000000

Using SPARSE 1.3 as Direct Linear Solver

Initial Transient Solution
--------------------------

Node                                   Voltage
----                                   -------
vdd                                    1.77671
in                                           0
out                                    1.77671
vin#branch                                   0
vdd#branch                        -2.51716e-12

 Reference value :  5.33440e-08
No. of Data Rows : 60041

  Measurements for Transient Analysis

tphl                =  6.57177e-11 targ=  2.30121e-09 trig=  2.23549e-09
tplh                =  1.12799e-10 targ=  2.28193e-08 trig=  2.27065e-08
i_vdd_avg           =  -1.26174e-06 from=  5.00000e-09 to=  1.10001e-07
power_avg_uw        =  2.24175e+00


Total analysis time (seconds) = 0.335809

Total elapsed time (seconds) = 0.426 

Total DRAM available = 16384.000 MB.
DRAM currently available =  310.328 MB.
Maximum ngspice program size =   14.969 MB.
Current ngspice program size =   14.969 MB.

