
Note: No compatibility mode selected!


Circuit: INV seed characterization sample 33

Doing analysis at TEMP = 69.259900 and TNOM = 27.000000

Using SPARSE 1.3 as Direct Linear Solver

Initial Transient Solution
--------------------------

Node                                   Voltage
----                                   -------
vdd                                    1.89037
in                                           0
out                                    1.89037
vin#branch                                   0
vdd#branch                        -2.92276e-11

 Reference value :  5.12121e-08
No. of Data Rows : 60047

  Measurements for Transient Analysis

tphl                =  9.12745e-11 targ=  2.25680e-09 trig=  2.16552e-09
tplh                =  1.00620e-10 targ=  2.25972e-08 trig=  2.24966e-08
i_vdd_avg           =  -1.71005e-06 from=  5.00000e-09 to=  1.10001e-07
power_avg_uw        =  3.23262e+00


Total analysis time (seconds) = 0.347184

Total elapsed time (seconds) = 0.436 

Total DRAM available = 16384.000 MB.
DRAM currently available =  309.219 MB.
Maximum ngspice program size =   13.062 MB.
Current ngspice program size =   12.250 MB.

