
Note: No compatibility mode selected!


Circuit: NAND2 seed characterization sample 36

Doing analysis at TEMP = 17.455000 and TNOM = 27.000000

Using SPARSE 1.3 as Direct Linear Solver

Initial Transient Solution
--------------------------

Node                                   Voltage
----                                   -------
vdd                                    1.69857
in                                           0
out                                    1.69857
nmid                                 0.0239154
vin#branch                                   0
vdd#branch                        -1.77873e-12

 Reference value :  3.74334e-08
 Reference value :  9.65672e-08
No. of Data Rows : 60044

  Measurements for Transient Analysis

tphl                =  7.86203e-10 targ=  2.84129e-09 trig=  2.05509e-09
tplh                =  2.94675e-10 targ=  2.24599e-08 trig=  2.21653e-08
i_vdd_avg           =  -3.17385e-06 from=  5.00000e-09 to=  1.10001e-07
power_avg_uw        =  5.39101e+00


Total analysis time (seconds) = 0.515465

Total elapsed time (seconds) = 0.597 

Total DRAM available = 16384.000 MB.
DRAM currently available =  326.578 MB.
Maximum ngspice program size =   14.109 MB.
Current ngspice program size =   14.109 MB.

