
Note: No compatibility mode selected!


Circuit: NAND2 seed characterization sample 32

Doing analysis at TEMP = 87.542600 and TNOM = 27.000000

Using SPARSE 1.3 as Direct Linear Solver

Initial Transient Solution
--------------------------

Node                                   Voltage
----                                   -------
vdd                                    1.73932
in                                           0
out                                    1.73932
nmid                                 0.0630045
vin#branch                                   0
vdd#branch                        -8.03571e-11

 Reference value :  4.38932e-08
 Reference value :  1.06123e-07
No. of Data Rows : 60044

  Measurements for Transient Analysis

tphl                =  2.85250e-10 targ=  2.33236e-09 trig=  2.04711e-09
tplh                =  1.48604e-10 targ=  2.22899e-08 trig=  2.21413e-08
i_vdd_avg           =  -5.71209e-06 from=  5.00000e-09 to=  1.10001e-07
power_avg_uw        =  9.93515e+00


Total analysis time (seconds) = 0.485387

Total elapsed time (seconds) = 0.559 

Total DRAM available = 16384.000 MB.
DRAM currently available =  307.375 MB.
Maximum ngspice program size =   14.375 MB.
Current ngspice program size =   14.375 MB.

