
Note: No compatibility mode selected!


Circuit: NAND2 seed characterization sample 39

Doing analysis at TEMP = 54.695500 and TNOM = 27.000000

Using SPARSE 1.3 as Direct Linear Solver

Initial Transient Solution
--------------------------

Node                                   Voltage
----                                   -------
vdd                                    1.96913
in                                           0
out                                    1.96913
nmid                                 0.0544807
vin#branch                                   0
vdd#branch                        -2.55583e-12

 Reference value :  3.76468e-08
 Reference value :  9.86729e-08
No. of Data Rows : 60044

  Measurements for Transient Analysis

tphl                =  5.61832e-10 targ=  2.59578e-09 trig=  2.03395e-09
tplh                =  2.56372e-10 targ=  2.23582e-08 trig=  2.21018e-08
i_vdd_avg           =  -6.02185e-06 from=  5.00000e-09 to=  1.10001e-07
power_avg_uw        =  1.18578e+01


Total analysis time (seconds) = 0.493547

Total elapsed time (seconds) = 0.580 

Total DRAM available = 16384.000 MB.
DRAM currently available =  321.266 MB.
Maximum ngspice program size =   14.094 MB.
Current ngspice program size =   14.094 MB.

