
Note: No compatibility mode selected!


Circuit: NAND2 seed characterization sample 35

Doing analysis at TEMP = 78.901000 and TNOM = 27.000000

Using SPARSE 1.3 as Direct Linear Solver

Initial Transient Solution
--------------------------

Node                                   Voltage
----                                   -------
vdd                                    1.81874
in                                           0
out                                    1.81874
nmid                                 0.0696791
vin#branch                                   0
vdd#branch                        -1.45499e-11

 Reference value :  3.75320e-08
 Reference value :  9.75375e-08
No. of Data Rows : 60044

  Measurements for Transient Analysis

tphl                =  3.09303e-10 targ=  2.54655e-09 trig=  2.23724e-09
tplh                =  1.95672e-10 targ=  2.29074e-08 trig=  2.27117e-08
i_vdd_avg           =  -1.63420e-06 from=  5.00000e-09 to=  1.10002e-07
power_avg_uw        =  2.97219e+00


Total analysis time (seconds) = 0.511411

Total elapsed time (seconds) = 0.593 

Total DRAM available = 16384.000 MB.
DRAM currently available =  313.031 MB.
Maximum ngspice program size =   14.438 MB.
Current ngspice program size =   14.438 MB.

