
Note: No compatibility mode selected!


Circuit: INV seed characterization sample 39

Doing analysis at TEMP = 33.808700 and TNOM = 27.000000

Using SPARSE 1.3 as Direct Linear Solver

Initial Transient Solution
--------------------------

Node                                   Voltage
----                                   -------
vdd                                    1.76903
in                                           0
out                                    1.76903
vin#branch                                   0
vdd#branch                        -1.98588e-12

 Reference value :  5.14350e-08
No. of Data Rows : 60044

  Measurements for Transient Analysis

tphl                =  2.45722e-10 targ=  2.38874e-09 trig=  2.14302e-09
tplh                =  2.74518e-10 targ=  2.27036e-08 trig=  2.24290e-08
i_vdd_avg           =  -1.41533e-06 from=  5.00000e-09 to=  1.10001e-07
power_avg_uw        =  2.50376e+00


Total analysis time (seconds) = 0.356833

Total elapsed time (seconds) = 0.451 

Total DRAM available = 16384.000 MB.
DRAM currently available =  311.188 MB.
Maximum ngspice program size =   14.281 MB.
Current ngspice program size =   14.281 MB.

