
Note: No compatibility mode selected!


Circuit: INV seed characterization sample 32

Doing analysis at TEMP = 1.787400 and TNOM = 27.000000

Using SPARSE 1.3 as Direct Linear Solver

Initial Transient Solution
--------------------------

Node                                   Voltage
----                                   -------
vdd                                    1.72383
in                                           0
out                                    1.72383
vin#branch                                   0
vdd#branch                        -2.52376e-12

 Reference value :  5.14002e-08
No. of Data Rows : 60047

  Measurements for Transient Analysis

tphl                =  1.93355e-10 targ=  2.24494e-09 trig=  2.05158e-09
tplh                =  1.82297e-10 targ=  2.23370e-08 trig=  2.21547e-08
i_vdd_avg           =  -5.27286e-06 from=  5.00000e-09 to=  1.10001e-07
power_avg_uw        =  9.08952e+00


Total analysis time (seconds) = 0.33666

Total elapsed time (seconds) = 0.430 

Total DRAM available = 16384.000 MB.
DRAM currently available =  303.188 MB.
Maximum ngspice program size =   14.531 MB.
Current ngspice program size =   14.531 MB.

