
Note: No compatibility mode selected!


Circuit: INV seed characterization sample 37

Doing analysis at TEMP = 87.592400 and TNOM = 27.000000

Using SPARSE 1.3 as Direct Linear Solver

Initial Transient Solution
--------------------------

Node                                   Voltage
----                                   -------
vdd                                    1.79952
in                                           0
out                                    1.79952
vin#branch                                   0
vdd#branch                        -3.92722e-12

 Reference value :  5.63538e-08
No. of Data Rows : 60041

  Measurements for Transient Analysis

tphl                =  2.60264e-10 targ=  2.39067e-09 trig=  2.13040e-09
tplh                =  4.05534e-10 targ=  2.27967e-08 trig=  2.23912e-08
i_vdd_avg           =  -3.52380e-06 from=  5.00000e-09 to=  1.10001e-07
power_avg_uw        =  6.34115e+00


Total analysis time (seconds) = 0.337888

Total elapsed time (seconds) = 0.425 

Total DRAM available = 16384.000 MB.
DRAM currently available =  299.391 MB.
Maximum ngspice program size =   14.547 MB.
Current ngspice program size =   14.547 MB.

