
Note: No compatibility mode selected!


Circuit: NAND2 seed characterization sample 34

Doing analysis at TEMP = 20.479300 and TNOM = 27.000000

Using SPARSE 1.3 as Direct Linear Solver

Initial Transient Solution
--------------------------

Node                                   Voltage
----                                   -------
vdd                                    1.86147
in                                           0
out                                    1.86147
nmid                                 0.0114569
vin#branch                                   0
vdd#branch                         -1.9045e-12

 Reference value :  4.05467e-08
 Reference value :  1.00704e-07
No. of Data Rows : 60041

  Measurements for Transient Analysis

tphl                =  1.86861e-10 targ=  2.29028e-09 trig=  2.10342e-09
tplh                =  1.19576e-10 targ=  2.24298e-08 trig=  2.23103e-08
i_vdd_avg           =  -2.90080e-06 from=  5.00000e-09 to=  1.10001e-07
power_avg_uw        =  5.39976e+00


Total analysis time (seconds) = 0.499756

Total elapsed time (seconds) = 0.580 

Total DRAM available = 16384.000 MB.
DRAM currently available =  292.672 MB.
Maximum ngspice program size =   14.047 MB.
Current ngspice program size =   14.047 MB.

