
Note: No compatibility mode selected!


Circuit: NAND2 seed characterization sample 38

Doing analysis at TEMP = 14.893900 and TNOM = 27.000000

Using SPARSE 1.3 as Direct Linear Solver

Initial Transient Solution
--------------------------

Node                                   Voltage
----                                   -------
vdd                                    1.62409
in                                           0
out                                    1.62409
nmid                                 0.0439217
vin#branch                                   0
vdd#branch                        -2.48629e-12

 Reference value :  3.88405e-08
 Reference value :  1.00797e-07
No. of Data Rows : 60044

  Measurements for Transient Analysis

tphl                =  2.03630e-10 targ=  2.28149e-09 trig=  2.07786e-09
tplh                =  9.38302e-11 targ=  2.23274e-08 trig=  2.22336e-08
i_vdd_avg           =  -3.19329e-06 from=  5.00000e-09 to=  1.10000e-07
power_avg_uw        =  5.18620e+00


Total analysis time (seconds) = 0.490159

Total elapsed time (seconds) = 0.573 

Total DRAM available = 16384.000 MB.
DRAM currently available =  334.344 MB.
Maximum ngspice program size =   14.922 MB.
Current ngspice program size =   14.922 MB.

