
Note: No compatibility mode selected!


Circuit: INV seed characterization sample 48

Doing analysis at TEMP = 7.663190 and TNOM = 27.000000

Using SPARSE 1.3 as Direct Linear Solver

Initial Transient Solution
--------------------------

Node                                   Voltage
----                                   -------
vdd                                    1.91256
in                                           0
out                                    1.91256
vin#branch                                   0
vdd#branch                        -2.05379e-12

 Reference value :  3.92345e-08
No. of Data Rows : 60041

  Measurements for Transient Analysis

tphl                =  1.14173e-10 targ=  2.19054e-09 trig=  2.07636e-09
tplh                =  1.75910e-10 targ=  2.24050e-08 trig=  2.22291e-08
i_vdd_avg           =  -2.81462e-06 from=  5.00000e-09 to=  1.10000e-07
power_avg_uw        =  5.38313e+00


Total analysis time (seconds) = 0.491749

Total elapsed time (seconds) = 0.598 

Total DRAM available = 16384.000 MB.
DRAM currently available =  270.859 MB.
Maximum ngspice program size =   18.562 MB.
Current ngspice program size =   18.562 MB.

