
Note: No compatibility mode selected!


Circuit: NAND2 seed characterization sample 44

Doing analysis at TEMP = 25.108500 and TNOM = 27.000000

Using SPARSE 1.3 as Direct Linear Solver

Initial Transient Solution
--------------------------

Node                                   Voltage
----                                   -------
vdd                                    1.64735
in                                           0
out                                    1.64735
nmid                                 0.0461618
vin#branch                                   0
vdd#branch                         -3.6403e-12

 Reference value :  3.37617e-08
 Reference value :  9.15294e-08
No. of Data Rows : 60044

  Measurements for Transient Analysis

tphl                =  2.63200e-10 targ=  2.39138e-09 trig=  2.12818e-09
tplh                =  1.23769e-10 targ=  2.25083e-08 trig=  2.23845e-08
i_vdd_avg           =  -4.56810e-06 from=  5.00000e-09 to=  1.10002e-07
power_avg_uw        =  7.52526e+00


Total analysis time (seconds) = 0.54267

Total elapsed time (seconds) = 0.628 

Total DRAM available = 16384.000 MB.
DRAM currently available =  187.156 MB.
Maximum ngspice program size =   14.156 MB.
Current ngspice program size =   13.328 MB.

