
Note: No compatibility mode selected!


Circuit: NAND2 seed characterization sample 47

Doing analysis at TEMP = -8.664190 and TNOM = 27.000000

Using SPARSE 1.3 as Direct Linear Solver

Initial Transient Solution
--------------------------

Node                                   Voltage
----                                   -------
vdd                                    1.82786
in                                           0
out                                    1.82786
nmid                                 0.0411178
vin#branch                                   0
vdd#branch                        -2.00263e-12

 Reference value :  3.84869e-08
 Reference value :  1.00896e-07
No. of Data Rows : 60041

  Measurements for Transient Analysis

tphl                =  2.63951e-10 targ=  2.44542e-09 trig=  2.18147e-09
tplh                =  1.48938e-10 targ=  2.26934e-08 trig=  2.25444e-08
i_vdd_avg           =  -6.13296e-06 from=  5.00000e-09 to=  1.10001e-07
power_avg_uw        =  1.12102e+01


Total analysis time (seconds) = 0.486684

Total elapsed time (seconds) = 0.570 

Total DRAM available = 16384.000 MB.
DRAM currently available =  225.766 MB.
Maximum ngspice program size =   14.562 MB.
Current ngspice program size =   14.562 MB.

