
Note: No compatibility mode selected!


Circuit: INV seed characterization sample 43

Doing analysis at TEMP = 66.694900 and TNOM = 27.000000

Using SPARSE 1.3 as Direct Linear Solver

Initial Transient Solution
--------------------------

Node                                   Voltage
----                                   -------
vdd                                    1.88427
in                                           0
out                                    1.88427
vin#branch                                   0
vdd#branch                        -2.14639e-12

 Reference value :  5.47631e-08
No. of Data Rows : 60044

  Measurements for Transient Analysis

tphl                =  7.97054e-10 targ=  3.02608e-09 trig=  2.22903e-09
tplh                =  7.81565e-10 targ=  2.34687e-08 trig=  2.26871e-08
i_vdd_avg           =  -5.49849e-06 from=  5.00000e-09 to=  1.10001e-07
power_avg_uw        =  1.03606e+01


Total analysis time (seconds) = 0.338653

Total elapsed time (seconds) = 0.425 

Total DRAM available = 16384.000 MB.
DRAM currently available =  302.562 MB.
Maximum ngspice program size =   14.609 MB.
Current ngspice program size =   14.609 MB.

