
Note: No compatibility mode selected!


Circuit: INV seed characterization sample 49

Doing analysis at TEMP = 80.215100 and TNOM = 27.000000

Using SPARSE 1.3 as Direct Linear Solver

Initial Transient Solution
--------------------------

Node                                   Voltage
----                                   -------
vdd                                    1.84172
in                                           0
out                                    1.84172
vin#branch                                   0
vdd#branch                        -3.74126e-12

 Reference value :  5.45953e-08
No. of Data Rows : 60044

  Measurements for Transient Analysis

tphl                =  2.27809e-10 targ=  2.32097e-09 trig=  2.09316e-09
tplh                =  3.30894e-10 targ=  2.26104e-08 trig=  2.22795e-08
i_vdd_avg           =  -3.96372e-06 from=  5.00000e-09 to=  1.10002e-07
power_avg_uw        =  7.30007e+00


Total analysis time (seconds) = 0.338701

Total elapsed time (seconds) = 0.425 

Total DRAM available = 16384.000 MB.
DRAM currently available =  347.062 MB.
Maximum ngspice program size =   14.062 MB.
Current ngspice program size =   14.062 MB.

