
Note: No compatibility mode selected!


Circuit: INV seed characterization sample 45

Doing analysis at TEMP = 59.237900 and TNOM = 27.000000

Using SPARSE 1.3 as Direct Linear Solver

Initial Transient Solution
--------------------------

Node                                   Voltage
----                                   -------
vdd                                    1.94899
in                                           0
out                                    1.94899
vin#branch                                   0
vdd#branch                        -8.48936e-12

 Reference value :  5.42527e-08
No. of Data Rows : 60044

  Measurements for Transient Analysis

tphl                =  6.70211e-11 targ=  2.15687e-09 trig=  2.08985e-09
tplh                =  9.33438e-11 targ=  2.23629e-08 trig=  2.22695e-08
i_vdd_avg           =  -7.72927e-07 from=  5.00000e-09 to=  1.10000e-07
power_avg_uw        =  1.50643e+00


Total analysis time (seconds) = 0.331841

Total elapsed time (seconds) = 0.422 

Total DRAM available = 16384.000 MB.
DRAM currently available =  308.031 MB.
Maximum ngspice program size =   14.516 MB.
Current ngspice program size =   14.516 MB.

