
Note: No compatibility mode selected!


Circuit: INV seed characterization sample 52

Doing analysis at TEMP = 93.646500 and TNOM = 27.000000

Using SPARSE 1.3 as Direct Linear Solver

Initial Transient Solution
--------------------------

Node                                   Voltage
----                                   -------
vdd                                    1.73282
in                                           0
out                                    1.73282
vin#branch                                   0
vdd#branch                        -5.91709e-12

 Reference value :  4.94232e-08
No. of Data Rows : 60044

  Measurements for Transient Analysis

tphl                =  1.42003e-10 targ=  2.28112e-09 trig=  2.13912e-09
tplh                =  1.89784e-10 targ=  2.26071e-08 trig=  2.24174e-08
i_vdd_avg           =  -1.42436e-06 from=  5.00000e-09 to=  1.10001e-07
power_avg_uw        =  2.46816e+00


Total analysis time (seconds) = 0.413401

Total elapsed time (seconds) = 0.496 

Total DRAM available = 16384.000 MB.
DRAM currently available =  303.172 MB.
Maximum ngspice program size =   14.297 MB.
Current ngspice program size =   14.297 MB.

