
Note: No compatibility mode selected!


Circuit: NAND2 seed characterization sample 56

Doing analysis at TEMP = 48.190500 and TNOM = 27.000000

Using SPARSE 1.3 as Direct Linear Solver

Initial Transient Solution
--------------------------

Node                                   Voltage
----                                   -------
vdd                                     1.6727
in                                           0
out                                     1.6727
nmid                                 0.0543709
vin#branch                                   0
vdd#branch                        -4.24373e-12

 Reference value :  3.64104e-08
 Reference value :  9.53294e-08
No. of Data Rows : 60047

  Measurements for Transient Analysis

tphl                =  3.21614e-10 targ=  2.32807e-09 trig=  2.00645e-09
tplh                =  8.79569e-11 targ=  2.21073e-08 trig=  2.20194e-08
i_vdd_avg           =  -2.57475e-06 from=  5.00000e-09 to=  1.10000e-07
power_avg_uw        =  4.30678e+00


Total analysis time (seconds) = 0.520765

Total elapsed time (seconds) = 0.609 

Total DRAM available = 16384.000 MB.
DRAM currently available =  350.672 MB.
Maximum ngspice program size =   15.438 MB.
Current ngspice program size =   15.438 MB.

