
Note: No compatibility mode selected!


Circuit: NAND2 seed characterization sample 53

Doing analysis at TEMP = 32.895800 and TNOM = 27.000000

Using SPARSE 1.3 as Direct Linear Solver

Initial Transient Solution
--------------------------

Node                                   Voltage
----                                   -------
vdd                                    1.68678
in                                           0
out                                    1.68678
nmid                                 0.0468914
vin#branch                                   0
vdd#branch                        -4.17243e-12

 Reference value :  3.79944e-08
 Reference value :  9.80987e-08
No. of Data Rows : 60044

  Measurements for Transient Analysis

tphl                =  1.78527e-10 targ=  2.26638e-09 trig=  2.08785e-09
tplh                =  1.00959e-10 targ=  2.23645e-08 trig=  2.22635e-08
i_vdd_avg           =  -2.39533e-06 from=  5.00000e-09 to=  1.10000e-07
power_avg_uw        =  4.04039e+00


Total analysis time (seconds) = 0.501871

Total elapsed time (seconds) = 0.583 

Total DRAM available = 16384.000 MB.
DRAM currently available =  195.219 MB.
Maximum ngspice program size =   13.812 MB.
Current ngspice program size =   13.547 MB.

