
Note: No compatibility mode selected!


Circuit: NAND2 seed characterization sample 50

Doing analysis at TEMP = 39.085100 and TNOM = 27.000000

Using SPARSE 1.3 as Direct Linear Solver

Initial Transient Solution
--------------------------

Node                                   Voltage
----                                   -------
vdd                                    1.88329
in                                           0
out                                    1.88329
nmid                                 0.0737473
vin#branch                                   0
vdd#branch                        -2.91467e-12

 Reference value :  3.78192e-08
 Reference value :  9.86711e-08
No. of Data Rows : 60044

  Measurements for Transient Analysis

tphl                =  7.51902e-10 targ=  2.93694e-09 trig=  2.18504e-09
tplh                =  3.47064e-10 targ=  2.29022e-08 trig=  2.25551e-08
i_vdd_avg           =  -3.02139e-06 from=  5.00000e-09 to=  1.10001e-07
power_avg_uw        =  5.69016e+00


Total analysis time (seconds) = 0.509716

Total elapsed time (seconds) = 0.593 

Total DRAM available = 16384.000 MB.
DRAM currently available =  238.062 MB.
Maximum ngspice program size =   14.141 MB.
Current ngspice program size =   14.141 MB.

