
Note: No compatibility mode selected!


Circuit: INV seed characterization sample 51

Doing analysis at TEMP = -14.784600 and TNOM = 27.000000

Using SPARSE 1.3 as Direct Linear Solver

Initial Transient Solution
--------------------------

Node                                   Voltage
----                                   -------
vdd                                    1.62244
in                                           0
out                                    1.62244
vin#branch                                   0
vdd#branch                        -1.63826e-12

 Reference value :  5.41779e-08
No. of Data Rows : 60041

  Measurements for Transient Analysis

tphl                =  3.08415e-10 targ=  2.35688e-09 trig=  2.04847e-09
tplh                =  5.75670e-10 targ=  2.27211e-08 trig=  2.21454e-08
i_vdd_avg           =  -4.18866e-06 from=  5.00000e-09 to=  1.10001e-07
power_avg_uw        =  6.79586e+00


Total analysis time (seconds) = 0.342568

Total elapsed time (seconds) = 0.428 

Total DRAM available = 16384.000 MB.
DRAM currently available =  356.266 MB.
Maximum ngspice program size =   14.859 MB.
Current ngspice program size =   14.859 MB.

