
Note: No compatibility mode selected!


Circuit: NAND2 seed characterization sample 51

Doing analysis at TEMP = 62.132100 and TNOM = 27.000000

Using SPARSE 1.3 as Direct Linear Solver

Initial Transient Solution
--------------------------

Node                                   Voltage
----                                   -------
vdd                                     1.7896
in                                           0
out                                     1.7896
nmid                                 0.0547212
vin#branch                                   0
vdd#branch                        -2.41437e-12

 Reference value :  3.65818e-08
 Reference value :  9.68624e-08
No. of Data Rows : 60047

  Measurements for Transient Analysis

tphl                =  5.81155e-10 targ=  2.59686e-09 trig=  2.01570e-09
tplh                =  2.22318e-10 targ=  2.22694e-08 trig=  2.20471e-08
i_vdd_avg           =  -3.14663e-06 from=  5.00000e-09 to=  1.10002e-07
power_avg_uw        =  5.63120e+00


Total analysis time (seconds) = 0.535711

Total elapsed time (seconds) = 0.620 

Total DRAM available = 16384.000 MB.
DRAM currently available =  184.188 MB.
Maximum ngspice program size =   15.609 MB.
Current ngspice program size =   15.609 MB.

