
Note: No compatibility mode selected!


Circuit: INV seed characterization sample 59

Doing analysis at TEMP = 98.861600 and TNOM = 27.000000

Using SPARSE 1.3 as Direct Linear Solver

Initial Transient Solution
--------------------------

Node                                   Voltage
----                                   -------
vdd                                    1.94737
in                                           0
out                                    1.94737
vin#branch                                   0
vdd#branch                        -1.19022e-10

 Reference value :  5.24999e-08
No. of Data Rows : 60041

  Measurements for Transient Analysis

tphl                =  5.22168e-10 targ=  2.55962e-09 trig=  2.03746e-09
tplh                =  5.78500e-10 targ=  2.26909e-08 trig=  2.21124e-08
i_vdd_avg           =  -5.04938e-06 from=  5.00000e-09 to=  1.10001e-07
power_avg_uw        =  9.83301e+00


Total analysis time (seconds) = 0.343375

Total elapsed time (seconds) = 0.432 

Total DRAM available = 16384.000 MB.
DRAM currently available =  301.750 MB.
Maximum ngspice program size =   14.719 MB.
Current ngspice program size =   14.719 MB.

