
Note: No compatibility mode selected!


Circuit: NAND2 seed characterization sample 59

Doing analysis at TEMP = 95.091500 and TNOM = 27.000000

Using SPARSE 1.3 as Direct Linear Solver

Initial Transient Solution
--------------------------

Node                                   Voltage
----                                   -------
vdd                                     1.7157
in                                           0
out                                     1.7157
nmid                                 0.0559471
vin#branch                                   0
vdd#branch                        -9.71286e-11

 Reference value :  3.64082e-08
 Reference value :  9.76896e-08
No. of Data Rows : 60041

  Measurements for Transient Analysis

tphl                =  2.86982e-10 targ=  2.36928e-09 trig=  2.08229e-09
tplh                =  1.20492e-10 targ=  2.23674e-08 trig=  2.22469e-08
i_vdd_avg           =  -4.00569e-06 from=  5.00000e-09 to=  1.10000e-07
power_avg_uw        =  6.87257e+00


Total analysis time (seconds) = 0.495302

Total elapsed time (seconds) = 0.586 

Total DRAM available = 16384.000 MB.
DRAM currently available =  330.172 MB.
Maximum ngspice program size =   14.750 MB.
Current ngspice program size =   14.750 MB.

