
Note: No compatibility mode selected!


Circuit: INV seed characterization sample 57

Doing analysis at TEMP = 41.244800 and TNOM = 27.000000

Using SPARSE 1.3 as Direct Linear Solver

Initial Transient Solution
--------------------------

Node                                   Voltage
----                                   -------
vdd                                     1.9541
in                                           0
out                                     1.9541
vin#branch                                   0
vdd#branch                        -6.28082e-12

 Reference value :  4.92107e-08
No. of Data Rows : 60044

  Measurements for Transient Analysis

tphl                =  9.94943e-11 targ=  2.18632e-09 trig=  2.08683e-09
tplh                =  1.27591e-10 targ=  2.23881e-08 trig=  2.22605e-08
i_vdd_avg           =  -3.45153e-06 from=  5.00000e-09 to=  1.10000e-07
power_avg_uw        =  6.74464e+00


Total analysis time (seconds) = 0.349623

Total elapsed time (seconds) = 0.453 

Total DRAM available = 16384.000 MB.
DRAM currently available =  317.109 MB.
Maximum ngspice program size =   17.016 MB.
Current ngspice program size =   17.016 MB.

