
Note: No compatibility mode selected!


Circuit: NAND2 seed characterization sample 57

Doing analysis at TEMP = 90.012500 and TNOM = 27.000000

Using SPARSE 1.3 as Direct Linear Solver

Initial Transient Solution
--------------------------

Node                                   Voltage
----                                   -------
vdd                                    1.74999
in                                           0
out                                    1.74999
nmid                                 0.0585334
vin#branch                                   0
vdd#branch                        -1.00883e-11

 Reference value :  3.95632e-08
 Reference value :  9.90941e-08
No. of Data Rows : 60047

  Measurements for Transient Analysis

tphl                =  3.76786e-10 targ=  2.52635e-09 trig=  2.14956e-09
tplh                =  1.94961e-10 targ=  2.26436e-08 trig=  2.24487e-08
i_vdd_avg           =  -4.95219e-06 from=  5.00000e-09 to=  1.10001e-07
power_avg_uw        =  8.66629e+00


Total analysis time (seconds) = 0.50328

Total elapsed time (seconds) = 0.582 

Total DRAM available = 16384.000 MB.
DRAM currently available =  328.734 MB.
Maximum ngspice program size =   14.531 MB.
Current ngspice program size =   14.219 MB.

