
Note: No compatibility mode selected!


Circuit: NOR2 seed characterization sample 68

Doing analysis at TEMP = 97.243400 and TNOM = 27.000000

Using SPARSE 1.3 as Direct Linear Solver

Initial Transient Solution
--------------------------

Node                                   Voltage
----                                   -------
vdd                                     1.8397
in                                           0
out                                     1.8397
pmid                                    1.8397
vin#branch                                   0
vdd#branch                        -6.89886e-10

 Reference value :  4.25072e-08
 Reference value :  1.03939e-07
No. of Data Rows : 60044

  Measurements for Transient Analysis

tphl                =  1.70328e-10 targ=  2.37844e-09 trig=  2.20811e-09
tplh                =  4.37348e-10 targ=  2.30617e-08 trig=  2.26243e-08
i_vdd_avg           =  -4.52477e-06 from=  5.00000e-09 to=  1.10001e-07
power_avg_uw        =  8.32423e+00


Total analysis time (seconds) = 0.476704

Total elapsed time (seconds) = 0.563 

Total DRAM available = 16384.000 MB.
DRAM currently available =  219.766 MB.
Maximum ngspice program size =   13.516 MB.
Current ngspice program size =   13.484 MB.

