
Note: No compatibility mode selected!


Circuit: INV seed characterization sample 64

Doing analysis at TEMP = 34.311100 and TNOM = 27.000000

Using SPARSE 1.3 as Direct Linear Solver

Initial Transient Solution
--------------------------

Node                                   Voltage
----                                   -------
vdd                                    1.75958
in                                           0
out                                    1.75958
vin#branch                                   0
vdd#branch                        -1.83577e-12

 Reference value :  5.61259e-08
No. of Data Rows : 60041

  Measurements for Transient Analysis

tphl                =  1.24840e-10 targ=  2.14326e-09 trig=  2.01843e-09
tplh                =  2.05670e-10 targ=  2.22609e-08 trig=  2.20553e-08
i_vdd_avg           =  -1.74197e-06 from=  5.00000e-09 to=  1.10001e-07
power_avg_uw        =  3.06513e+00


Total analysis time (seconds) = 0.333403

Total elapsed time (seconds) = 0.419 

Total DRAM available = 16384.000 MB.
DRAM currently available =  306.047 MB.
Maximum ngspice program size =   14.422 MB.
Current ngspice program size =   14.422 MB.

