
Note: No compatibility mode selected!


Circuit: NOR2 seed characterization sample 61

Doing analysis at TEMP = 1.380190 and TNOM = 27.000000

Using SPARSE 1.3 as Direct Linear Solver

Initial Transient Solution
--------------------------

Node                                   Voltage
----                                   -------
vdd                                    1.91874
in                                           0
out                                    1.91874
pmid                                   1.91874
vin#branch                                   0
vdd#branch                        -3.86802e-12

 Reference value :  3.77113e-08
 Reference value :  9.85472e-08
No. of Data Rows : 60044

  Measurements for Transient Analysis

tphl                =  6.60224e-11 targ=  2.11010e-09 trig=  2.04408e-09
tplh                =  2.69452e-10 targ=  2.24017e-08 trig=  2.21322e-08
i_vdd_avg           =  -3.45013e-06 from=  5.00000e-09 to=  1.10001e-07
power_avg_uw        =  6.61990e+00


Total analysis time (seconds) = 0.495966

Total elapsed time (seconds) = 0.581 

Total DRAM available = 16384.000 MB.
DRAM currently available =  329.797 MB.
Maximum ngspice program size =   14.000 MB.
Current ngspice program size =   13.672 MB.

