
Note: No compatibility mode selected!


Circuit: INV seed characterization sample 68

Doing analysis at TEMP = 95.284300 and TNOM = 27.000000

Using SPARSE 1.3 as Direct Linear Solver

Initial Transient Solution
--------------------------

Node                                   Voltage
----                                   -------
vdd                                    1.75111
in                                           0
out                                    1.75111
vin#branch                                   0
vdd#branch                        -4.79084e-10

 Reference value :  5.49004e-08
No. of Data Rows : 60047

  Measurements for Transient Analysis

tphl                =  9.30307e-11 targ=  2.26073e-09 trig=  2.16770e-09
tplh                =  9.62184e-11 targ=  2.25993e-08 trig=  2.25031e-08
i_vdd_avg           =  -1.31716e-06 from=  5.00000e-09 to=  1.10002e-07
power_avg_uw        =  2.30648e+00


Total analysis time (seconds) = 0.344571

Total elapsed time (seconds) = 0.428 

Total DRAM available = 16384.000 MB.
DRAM currently available =  315.391 MB.
Maximum ngspice program size =   14.953 MB.
Current ngspice program size =   14.953 MB.

