
Note: No compatibility mode selected!


Circuit: INV seed characterization sample 61

Doing analysis at TEMP = 62.152900 and TNOM = 27.000000

Using SPARSE 1.3 as Direct Linear Solver

Initial Transient Solution
--------------------------

Node                                   Voltage
----                                   -------
vdd                                    1.78503
in                                           0
out                                    1.78503
vin#branch                                   0
vdd#branch                        -2.32165e-12

 Reference value :  5.12182e-08
No. of Data Rows : 60047

  Measurements for Transient Analysis

tphl                =  2.85331e-10 targ=  2.40592e-09 trig=  2.12059e-09
tplh                =  3.68112e-10 targ=  2.27299e-08 trig=  2.23618e-08
i_vdd_avg           =  -3.05625e-06 from=  5.00000e-09 to=  1.10001e-07
power_avg_uw        =  5.45550e+00


Total analysis time (seconds) = 0.355809

Total elapsed time (seconds) = 0.443 

Total DRAM available = 16384.000 MB.
DRAM currently available =  313.766 MB.
Maximum ngspice program size =   14.359 MB.
Current ngspice program size =   14.359 MB.

