
Note: No compatibility mode selected!


Circuit: NOR2 seed characterization sample 64

Doing analysis at TEMP = 52.879800 and TNOM = 27.000000

Using SPARSE 1.3 as Direct Linear Solver

Initial Transient Solution
--------------------------

Node                                   Voltage
----                                   -------
vdd                                    1.92623
in                                           0
out                                    1.92623
pmid                                   1.92623
vin#branch                                   0
vdd#branch                        -5.30523e-12

 Reference value :  3.72438e-08
 Reference value :  9.88074e-08
No. of Data Rows : 60044

  Measurements for Transient Analysis

tphl                =  1.32672e-10 targ=  2.25988e-09 trig=  2.12721e-09
tplh                =  4.51810e-10 targ=  2.28334e-08 trig=  2.23816e-08
i_vdd_avg           =  -5.65135e-06 from=  5.00000e-09 to=  1.10002e-07
power_avg_uw        =  1.08858e+01


Total analysis time (seconds) = 0.484383

Total elapsed time (seconds) = 0.575 

Total DRAM available = 16384.000 MB.
DRAM currently available =  308.953 MB.
Maximum ngspice program size =   13.938 MB.
Current ngspice program size =   12.906 MB.

