
Note: No compatibility mode selected!


Circuit: INV seed characterization sample 65

Doing analysis at TEMP = 55.562000 and TNOM = 27.000000

Using SPARSE 1.3 as Direct Linear Solver

Initial Transient Solution
--------------------------

Node                                   Voltage
----                                   -------
vdd                                    1.70363
in                                           0
out                                    1.70363
vin#branch                                   0
vdd#branch                        -9.46207e-11

 Reference value :  4.91894e-08
No. of Data Rows : 60044

  Measurements for Transient Analysis

tphl                =  1.61996e-10 targ=  2.31922e-09 trig=  2.15722e-09
tplh                =  1.68168e-10 targ=  2.26398e-08 trig=  2.24717e-08
i_vdd_avg           =  -3.89606e-06 from=  5.00000e-09 to=  1.10002e-07
power_avg_uw        =  6.63745e+00


Total analysis time (seconds) = 0.34619

Total elapsed time (seconds) = 0.450 

Total DRAM available = 16384.000 MB.
DRAM currently available =  304.469 MB.
Maximum ngspice program size =   15.000 MB.
Current ngspice program size =   15.000 MB.

