
Note: No compatibility mode selected!


Circuit: INV seed characterization sample 67

Doing analysis at TEMP = -4.037200 and TNOM = 27.000000

Using SPARSE 1.3 as Direct Linear Solver

Initial Transient Solution
--------------------------

Node                                   Voltage
----                                   -------
vdd                                    1.95768
in                                           0
out                                    1.95768
vin#branch                                   0
vdd#branch                        -1.97083e-12

 Reference value :  5.13346e-08
No. of Data Rows : 60044

  Measurements for Transient Analysis

tphl                =  2.22343e-10 targ=  2.34612e-09 trig=  2.12378e-09
tplh                =  2.70156e-10 targ=  2.26415e-08 trig=  2.23713e-08
i_vdd_avg           =  -5.73403e-06 from=  5.00000e-09 to=  1.10000e-07
power_avg_uw        =  1.12254e+01


Total analysis time (seconds) = 0.354516

Total elapsed time (seconds) = 0.449 

Total DRAM available = 16384.000 MB.
DRAM currently available =  299.781 MB.
Maximum ngspice program size =   15.125 MB.
Current ngspice program size =   14.281 MB.

