
Note: No compatibility mode selected!


Circuit: INV seed characterization sample 60

Doing analysis at TEMP = 57.281100 and TNOM = 27.000000

Using SPARSE 1.3 as Direct Linear Solver

Initial Transient Solution
--------------------------

Node                                   Voltage
----                                   -------
vdd                                    1.86628
in                                           0
out                                    1.86628
vin#branch                                   0
vdd#branch                        -5.57022e-12

 Reference value :  5.17260e-08
No. of Data Rows : 60047

  Measurements for Transient Analysis

tphl                =  5.81553e-11 targ=  2.13166e-09 trig=  2.07350e-09
tplh                =  7.14524e-11 targ=  2.22920e-08 trig=  2.22205e-08
i_vdd_avg           =  -3.50265e-07 from=  5.00000e-09 to=  1.10001e-07
power_avg_uw        =  6.53692e-01


Total analysis time (seconds) = 0.421305

Total elapsed time (seconds) = 0.511 

Total DRAM available = 16384.000 MB.
DRAM currently available =  315.859 MB.
Maximum ngspice program size =   14.562 MB.
Current ngspice program size =   14.562 MB.

