
Note: No compatibility mode selected!


Circuit: NOR2 seed characterization sample 72

Doing analysis at TEMP = 71.713900 and TNOM = 27.000000

Using SPARSE 1.3 as Direct Linear Solver

Initial Transient Solution
--------------------------

Node                                   Voltage
----                                   -------
vdd                                    1.72031
in                                           0
out                                    1.72031
pmid                                   1.72031
vin#branch                                   0
vdd#branch                         -1.6411e-11

 Reference value :  3.74579e-08
 Reference value :  1.00582e-07
No. of Data Rows : 60047

  Measurements for Transient Analysis

tphl                =  1.21177e-10 targ=  2.21590e-09 trig=  2.09472e-09
tplh                =  5.19712e-10 targ=  2.28039e-08 trig=  2.22842e-08
i_vdd_avg           =  -1.50130e-06 from=  5.00000e-09 to=  1.10002e-07
power_avg_uw        =  2.58271e+00


Total analysis time (seconds) = 0.500613

Total elapsed time (seconds) = 0.578 

Total DRAM available = 16384.000 MB.
DRAM currently available =  290.156 MB.
Maximum ngspice program size =   14.656 MB.
Current ngspice program size =   14.656 MB.

