
Note: No compatibility mode selected!


Circuit: INV seed characterization sample 77

Doing analysis at TEMP = 46.739000 and TNOM = 27.000000

Using SPARSE 1.3 as Direct Linear Solver

Initial Transient Solution
--------------------------

Node                                   Voltage
----                                   -------
vdd                                    1.68507
in                                           0
out                                    1.68507
vin#branch                                   0
vdd#branch                        -1.49847e-11

 Reference value :  5.64612e-08
No. of Data Rows : 60044

  Measurements for Transient Analysis

tphl                =  3.07906e-10 targ=  2.36499e-09 trig=  2.05708e-09
tplh                =  3.84434e-10 targ=  2.25557e-08 trig=  2.21712e-08
i_vdd_avg           =  -4.74476e-06 from=  5.00000e-09 to=  1.10001e-07
power_avg_uw        =  7.99525e+00


Total analysis time (seconds) = 0.343635

Total elapsed time (seconds) = 0.427 

Total DRAM available = 16384.000 MB.
DRAM currently available =  338.969 MB.
Maximum ngspice program size =   14.406 MB.
Current ngspice program size =   14.406 MB.

