
Note: No compatibility mode selected!


Circuit: INV seed characterization sample 72

Doing analysis at TEMP = 12.333100 and TNOM = 27.000000

Using SPARSE 1.3 as Direct Linear Solver

Initial Transient Solution
--------------------------

Node                                   Voltage
----                                   -------
vdd                                    1.71602
in                                           0
out                                    1.71602
vin#branch                                   0
vdd#branch                        -1.76526e-12

 Reference value :  5.48047e-08
No. of Data Rows : 60044

  Measurements for Transient Analysis

tphl                =  4.77640e-10 targ=  2.64949e-09 trig=  2.17185e-09
tplh                =  8.01659e-10 targ=  2.33172e-08 trig=  2.25155e-08
i_vdd_avg           =  -4.16086e-06 from=  5.00000e-09 to=  1.10000e-07
power_avg_uw        =  7.14011e+00


Total analysis time (seconds) = 0.336286

Total elapsed time (seconds) = 0.423 

Total DRAM available = 16384.000 MB.
DRAM currently available =  334.953 MB.
Maximum ngspice program size =   13.641 MB.
Current ngspice program size =   13.641 MB.

