
Note: No compatibility mode selected!


Circuit: INV seed characterization sample 79

Doing analysis at TEMP = 35.651300 and TNOM = 27.000000

Using SPARSE 1.3 as Direct Linear Solver

Initial Transient Solution
--------------------------

Node                                   Voltage
----                                   -------
vdd                                     1.8161
in                                           0
out                                     1.8161
vin#branch                                   0
vdd#branch                        -1.88136e-12

 Reference value :  5.63942e-08
No. of Data Rows : 60047

  Measurements for Transient Analysis

tphl                =  3.12216e-10 targ=  2.44283e-09 trig=  2.13061e-09
tplh                =  3.38430e-10 targ=  2.27303e-08 trig=  2.23918e-08
i_vdd_avg           =  -4.91657e-06 from=  5.00000e-09 to=  1.10001e-07
power_avg_uw        =  8.92899e+00


Total analysis time (seconds) = 0.328376

Total elapsed time (seconds) = 0.412 

Total DRAM available = 16384.000 MB.
DRAM currently available =  323.422 MB.
Maximum ngspice program size =   13.844 MB.
Current ngspice program size =   13.844 MB.

