
Note: No compatibility mode selected!


Circuit: NOR2 seed characterization sample 73

Doing analysis at TEMP = 58.662600 and TNOM = 27.000000

Using SPARSE 1.3 as Direct Linear Solver

Initial Transient Solution
--------------------------

Node                                   Voltage
----                                   -------
vdd                                    1.76835
in                                           0
out                                    1.76835
pmid                                   1.76835
vin#branch                                   0
vdd#branch                        -3.72646e-12

 Reference value :  4.12833e-08
 Reference value :  1.06277e-07
No. of Data Rows : 60044

  Measurements for Transient Analysis

tphl                =  4.75161e-10 targ=  2.64724e-09 trig=  2.17208e-09
tplh                =  2.88301e-09 targ=  2.53992e-08 trig=  2.25162e-08
i_vdd_avg           =  -3.24782e-06 from=  5.00000e-09 to=  1.10001e-07
power_avg_uw        =  5.74329e+00


Total analysis time (seconds) = 0.465729

Total elapsed time (seconds) = 0.563 

Total DRAM available = 16384.000 MB.
DRAM currently available =  256.328 MB.
Maximum ngspice program size =   14.781 MB.
Current ngspice program size =   14.781 MB.

