
Note: No compatibility mode selected!


Circuit: INV seed characterization sample 75

Doing analysis at TEMP = 76.764000 and TNOM = 27.000000

Using SPARSE 1.3 as Direct Linear Solver

Initial Transient Solution
--------------------------

Node                                   Voltage
----                                   -------
vdd                                    1.78653
in                                           0
out                                    1.78653
vin#branch                                   0
vdd#branch                        -1.35431e-11

 Reference value :  5.12176e-08
No. of Data Rows : 60041

  Measurements for Transient Analysis

tphl                =  3.08351e-10 targ=  2.51963e-09 trig=  2.21128e-09
tplh                =  4.26272e-10 targ=  2.30601e-08 trig=  2.26338e-08
i_vdd_avg           =  -3.79977e-06 from=  5.00000e-09 to=  1.10000e-07
power_avg_uw        =  6.78840e+00


Total analysis time (seconds) = 0.337842

Total elapsed time (seconds) = 0.434 

Total DRAM available = 16384.000 MB.
DRAM currently available =  361.344 MB.
Maximum ngspice program size =   14.250 MB.
Current ngspice program size =   14.250 MB.

