
Note: No compatibility mode selected!


Circuit: INV seed characterization sample 76

Doing analysis at TEMP = 5.839210 and TNOM = 27.000000

Using SPARSE 1.3 as Direct Linear Solver

Initial Transient Solution
--------------------------

Node                                   Voltage
----                                   -------
vdd                                    1.67704
in                                           0
out                                    1.67704
vin#branch                                   0
vdd#branch                        -1.69035e-12

 Reference value :  5.52225e-08
No. of Data Rows : 60047

  Measurements for Transient Analysis

tphl                =  4.24753e-10 targ=  2.45649e-09 trig=  2.03174e-09
tplh                =  4.44906e-10 targ=  2.25401e-08 trig=  2.20952e-08
i_vdd_avg           =  -4.89741e-06 from=  5.00000e-09 to=  1.10002e-07
power_avg_uw        =  8.21314e+00


Total analysis time (seconds) = 0.340208

Total elapsed time (seconds) = 0.429 

Total DRAM available = 16384.000 MB.
DRAM currently available =  327.172 MB.
Maximum ngspice program size =   14.672 MB.
Current ngspice program size =   14.672 MB.

