
Note: No compatibility mode selected!


Circuit: INV seed characterization sample 73

Doing analysis at TEMP = -12.055500 and TNOM = 27.000000

Using SPARSE 1.3 as Direct Linear Solver

Initial Transient Solution
--------------------------

Node                                   Voltage
----                                   -------
vdd                                    1.97652
in                                           0
out                                    1.97652
vin#branch                                   0
vdd#branch                        -1.98674e-12

 Reference value :  5.32496e-08
No. of Data Rows : 60041

  Measurements for Transient Analysis

tphl                =  2.94726e-10 targ=  2.30702e-09 trig=  2.01230e-09
tplh                =  3.55666e-10 targ=  2.23926e-08 trig=  2.20369e-08
i_vdd_avg           =  -1.96802e-06 from=  5.00000e-09 to=  1.10000e-07
power_avg_uw        =  3.88982e+00


Total analysis time (seconds) = 0.355378

Total elapsed time (seconds) = 0.448 

Total DRAM available = 16384.000 MB.
DRAM currently available =  356.141 MB.
Maximum ngspice program size =   14.188 MB.
Current ngspice program size =   13.984 MB.

