
Note: No compatibility mode selected!


Circuit: NOR2 seed characterization sample 74

Doing analysis at TEMP = -14.519900 and TNOM = 27.000000

Using SPARSE 1.3 as Direct Linear Solver

Initial Transient Solution
--------------------------

Node                                   Voltage
----                                   -------
vdd                                    1.67207
in                                           0
out                                    1.67207
pmid                                   1.67207
vin#branch                                   0
vdd#branch                        -4.54847e-12

 Reference value :  4.27220e-08
 Reference value :  1.07061e-07
No. of Data Rows : 60047

  Measurements for Transient Analysis

tphl                =  8.38028e-11 targ=  2.32031e-09 trig=  2.23651e-09
tplh                =  2.61235e-10 targ=  2.29708e-08 trig=  2.27095e-08
i_vdd_avg           =  -2.60673e-06 from=  5.00000e-09 to=  1.10001e-07
power_avg_uw        =  4.35864e+00


Total analysis time (seconds) = 0.465813

Total elapsed time (seconds) = 0.543 

Total DRAM available = 16384.000 MB.
DRAM currently available =  269.234 MB.
Maximum ngspice program size =   15.141 MB.
Current ngspice program size =   15.141 MB.

