
Note: No compatibility mode selected!


Circuit: NAND2 seed characterization sample 85

Doing analysis at TEMP = -14.412100 and TNOM = 27.000000

Using SPARSE 1.3 as Direct Linear Solver

Initial Transient Solution
--------------------------

Node                                   Voltage
----                                   -------
vdd                                    1.88353
in                                           0
out                                    1.88353
nmid                                 0.0260597
vin#branch                                   0
vdd#branch                        -1.99211e-12

 Reference value :  3.65419e-08
 Reference value :  9.51244e-08
No. of Data Rows : 60047

  Measurements for Transient Analysis

tphl                =  2.20164e-10 targ=  2.34288e-09 trig=  2.12272e-09
tplh                =  1.04308e-10 targ=  2.24725e-08 trig=  2.23681e-08
i_vdd_avg           =  -3.55210e-06 from=  5.00000e-09 to=  1.10002e-07
power_avg_uw        =  6.69048e+00


Total analysis time (seconds) = 0.515749

Total elapsed time (seconds) = 0.602 

Total DRAM available = 16384.000 MB.
DRAM currently available =  316.406 MB.
Maximum ngspice program size =   13.141 MB.
Current ngspice program size =   13.141 MB.

