
Note: No compatibility mode selected!


Circuit: NAND2 seed characterization sample 89

Doing analysis at TEMP = 11.010800 and TNOM = 27.000000

Using SPARSE 1.3 as Direct Linear Solver

Initial Transient Solution
--------------------------

Node                                   Voltage
----                                   -------
vdd                                    1.79592
in                                           0
out                                    1.79592
nmid                                 0.0243008
vin#branch                                   0
vdd#branch                        -1.88948e-12

 Reference value :  3.60796e-08
 Reference value :  9.29412e-08
No. of Data Rows : 60064

  Measurements for Transient Analysis

tphl                =  2.84562e-10 targ=  2.29123e-09 trig=  2.00667e-09
tplh                =  8.71880e-11 targ=  2.21072e-08 trig=  2.20200e-08
i_vdd_avg           =  -5.71558e-06 from=  5.00000e-09 to=  1.10001e-07
power_avg_uw        =  1.02647e+01


Total analysis time (seconds) = 0.526615

Total elapsed time (seconds) = 0.615 

Total DRAM available = 16384.000 MB.
DRAM currently available =  298.172 MB.
Maximum ngspice program size =   13.531 MB.
Current ngspice program size =   13.375 MB.

