
Note: No compatibility mode selected!


Circuit: NOR2 seed characterization sample 86

Doing analysis at TEMP = 95.129200 and TNOM = 27.000000

Using SPARSE 1.3 as Direct Linear Solver

Initial Transient Solution
--------------------------

Node                                   Voltage
----                                   -------
vdd                                    1.71495
in                                           0
out                                    1.71495
pmid                                   1.71495
vin#branch                                   0
vdd#branch                        -4.14761e-10

 Reference value :  3.98459e-08
 Reference value :  1.02892e-07
No. of Data Rows : 60044

  Measurements for Transient Analysis

tphl                =  1.87175e-10 targ=  2.23440e-09 trig=  2.04723e-09
tplh                =  6.20379e-10 targ=  2.27621e-08 trig=  2.21417e-08
i_vdd_avg           =  -4.44185e-06 from=  5.00000e-09 to=  1.10002e-07
power_avg_uw        =  7.61755e+00


Total analysis time (seconds) = 0.47743

Total elapsed time (seconds) = 0.577 

Total DRAM available = 16384.000 MB.
DRAM currently available =  173.578 MB.
Maximum ngspice program size =   14.766 MB.
Current ngspice program size =   14.766 MB.

