
Note: No compatibility mode selected!


Circuit: NAND2 seed characterization sample 86

Doing analysis at TEMP = 84.045600 and TNOM = 27.000000

Using SPARSE 1.3 as Direct Linear Solver

Initial Transient Solution
--------------------------

Node                                   Voltage
----                                   -------
vdd                                    1.77546
in                                           0
out                                    1.77546
nmid                                 0.0490394
vin#branch                                   0
vdd#branch                        -5.73588e-12

 Reference value :  3.53101e-08
 Reference value :  9.35126e-08
No. of Data Rows : 60044

  Measurements for Transient Analysis

tphl                =  3.08553e-10 targ=  2.52834e-09 trig=  2.21978e-09
tplh                =  1.89738e-10 targ=  2.28491e-08 trig=  2.26593e-08
i_vdd_avg           =  -2.30025e-06 from=  5.00000e-09 to=  1.10000e-07
power_avg_uw        =  4.08401e+00


Total analysis time (seconds) = 0.516611

Total elapsed time (seconds) = 0.606 

Total DRAM available = 16384.000 MB.
DRAM currently available =  325.953 MB.
Maximum ngspice program size =   14.875 MB.
Current ngspice program size =   14.875 MB.

