
Note: No compatibility mode selected!


Circuit: NOR2 seed characterization sample 80

Doing analysis at TEMP = 79.890700 and TNOM = 27.000000

Using SPARSE 1.3 as Direct Linear Solver

Initial Transient Solution
--------------------------

Node                                   Voltage
----                                   -------
vdd                                    1.80731
in                                           0
out                                    1.80731
pmid                                   1.80731
vin#branch                                   0
vdd#branch                        -8.47904e-10

 Reference value :  3.88711e-08
 Reference value :  1.01449e-07
No. of Data Rows : 60044

  Measurements for Transient Analysis

tphl                =  8.13414e-11 targ=  2.10637e-09 trig=  2.02503e-09
tplh                =  2.66450e-10 targ=  2.23415e-08 trig=  2.20751e-08
i_vdd_avg           =  -6.59650e-06 from=  5.00000e-09 to=  1.10001e-07
power_avg_uw        =  1.19219e+01


Total analysis time (seconds) = 0.490794

Total elapsed time (seconds) = 0.574 

Total DRAM available = 16384.000 MB.
DRAM currently available =  223.625 MB.
Maximum ngspice program size =   14.219 MB.
Current ngspice program size =   14.219 MB.

