
Note: No compatibility mode selected!


Circuit: NAND2 seed characterization sample 88

Doing analysis at TEMP = 33.585200 and TNOM = 27.000000

Using SPARSE 1.3 as Direct Linear Solver

Initial Transient Solution
--------------------------

Node                                   Voltage
----                                   -------
vdd                                    1.84653
in                                           0
out                                    1.84653
nmid                                  0.053774
vin#branch                                   0
vdd#branch                        -6.08907e-12

 Reference value :  3.61803e-08
 Reference value :  9.45646e-08
No. of Data Rows : 60044

  Measurements for Transient Analysis

tphl                =  2.06136e-10 targ=  2.40996e-09 trig=  2.20382e-09
tplh                =  1.00962e-10 targ=  2.27124e-08 trig=  2.26115e-08
i_vdd_avg           =  -3.74319e-06 from=  5.00000e-09 to=  1.10000e-07
power_avg_uw        =  6.91191e+00


Total analysis time (seconds) = 0.516739

Total elapsed time (seconds) = 0.605 

Total DRAM available = 16384.000 MB.
DRAM currently available =  323.625 MB.
Maximum ngspice program size =   15.500 MB.
Current ngspice program size =   15.500 MB.

