
Note: No compatibility mode selected!


Circuit: NAND2 seed characterization sample 81

Doing analysis at TEMP = -5.695710 and TNOM = 27.000000

Using SPARSE 1.3 as Direct Linear Solver

Initial Transient Solution
--------------------------

Node                                   Voltage
----                                   -------
vdd                                    1.80242
in                                           0
out                                    1.80242
nmid                               0.000122872
vin#branch                                   0
vdd#branch                        -1.81277e-12

 Reference value :  3.40167e-08
 Reference value :  9.10028e-08
No. of Data Rows : 60044

  Measurements for Transient Analysis

tphl                =  8.92715e-10 targ=  2.93964e-09 trig=  2.04692e-09
tplh                =  3.32131e-10 targ=  2.24729e-08 trig=  2.21408e-08
i_vdd_avg           =  -3.21237e-06 from=  5.00000e-09 to=  1.10001e-07
power_avg_uw        =  5.79004e+00


Total analysis time (seconds) = 0.538341

Total elapsed time (seconds) = 0.632 

Total DRAM available = 16384.000 MB.
DRAM currently available =  317.969 MB.
Maximum ngspice program size =   14.953 MB.
Current ngspice program size =   14.953 MB.

