
Note: No compatibility mode selected!


Circuit: NAND2 seed characterization sample 95

Doing analysis at TEMP = 52.622700 and TNOM = 27.000000

Using SPARSE 1.3 as Direct Linear Solver

Initial Transient Solution
--------------------------

Node                                   Voltage
----                                   -------
vdd                                    1.69144
in                                           0
out                                    1.69144
nmid                                 0.0522471
vin#branch                                   0
vdd#branch                        -2.56585e-12

 Reference value :  3.75681e-08
 Reference value :  9.59265e-08
No. of Data Rows : 60044

  Measurements for Transient Analysis

tphl                =  2.31609e-10 targ=  2.41538e-09 trig=  2.18377e-09
tplh                =  1.68075e-10 targ=  2.27194e-08 trig=  2.25513e-08
i_vdd_avg           =  -1.95206e-06 from=  5.00000e-09 to=  1.10000e-07
power_avg_uw        =  3.30179e+00


Total analysis time (seconds) = 0.520428

Total elapsed time (seconds) = 0.603 

Total DRAM available = 16384.000 MB.
DRAM currently available =  331.719 MB.
Maximum ngspice program size =   14.109 MB.
Current ngspice program size =   14.109 MB.

