
Note: No compatibility mode selected!


Circuit: NAND2 seed characterization sample 97

Doing analysis at TEMP = 66.750900 and TNOM = 27.000000

Using SPARSE 1.3 as Direct Linear Solver

Initial Transient Solution
--------------------------

Node                                   Voltage
----                                   -------
vdd                                    1.76095
in                                           0
out                                    1.76095
nmid                                 0.0612702
vin#branch                                   0
vdd#branch                        -1.77292e-11

 Reference value :  3.42195e-08
 Reference value :  9.33672e-08
No. of Data Rows : 60044

  Measurements for Transient Analysis

tphl                =  4.59151e-10 targ=  2.67427e-09 trig=  2.21511e-09
tplh                =  1.99269e-10 targ=  2.28446e-08 trig=  2.26453e-08
i_vdd_avg           =  -5.23027e-06 from=  5.00000e-09 to=  1.10001e-07
power_avg_uw        =  9.21024e+00


Total analysis time (seconds) = 0.521415

Total elapsed time (seconds) = 0.613 

Total DRAM available = 16384.000 MB.
DRAM currently available =  321.750 MB.
Maximum ngspice program size =   15.047 MB.
Current ngspice program size =   15.047 MB.

