
Note: No compatibility mode selected!


Circuit: NAND2 seed characterization sample 91

Doing analysis at TEMP = -10.306700 and TNOM = 27.000000

Using SPARSE 1.3 as Direct Linear Solver

Initial Transient Solution
--------------------------

Node                                   Voltage
----                                   -------
vdd                                    1.74813
in                                           0
out                                    1.74813
nmid                                 0.0209965
vin#branch                                   0
vdd#branch                         -1.8433e-12

 Reference value :  3.63769e-08
 Reference value :  9.29580e-08
No. of Data Rows : 60041

  Measurements for Transient Analysis

tphl                =  3.21658e-10 targ=  2.43214e-09 trig=  2.11048e-09
tplh                =  1.46287e-10 targ=  2.24777e-08 trig=  2.23314e-08
i_vdd_avg           =  -3.07392e-06 from=  5.00000e-09 to=  1.10001e-07
power_avg_uw        =  5.37362e+00


Total analysis time (seconds) = 0.528779

Total elapsed time (seconds) = 0.616 

Total DRAM available = 16384.000 MB.
DRAM currently available =  319.578 MB.
Maximum ngspice program size =   14.250 MB.
Current ngspice program size =   14.250 MB.

