
Note: No compatibility mode selected!


Circuit: NAND2 seed characterization sample 93

Doing analysis at TEMP = 21.749900 and TNOM = 27.000000

Using SPARSE 1.3 as Direct Linear Solver

Initial Transient Solution
--------------------------

Node                                   Voltage
----                                   -------
vdd                                    1.75861
in                                           0
out                                    1.75861
nmid                                0.00712351
vin#branch                                   0
vdd#branch                        -1.78832e-12

 Reference value :  3.51451e-08
 Reference value :  9.47800e-08
No. of Data Rows : 60047

  Measurements for Transient Analysis

tphl                =  2.29789e-10 targ=  2.42131e-09 trig=  2.19152e-09
tplh                =  1.45984e-10 targ=  2.27205e-08 trig=  2.25745e-08
i_vdd_avg           =  -1.10784e-06 from=  5.00000e-09 to=  1.10001e-07
power_avg_uw        =  1.94826e+00


Total analysis time (seconds) = 0.508071

Total elapsed time (seconds) = 0.598 

Total DRAM available = 16384.000 MB.
DRAM currently available =  316.109 MB.
Maximum ngspice program size =   15.234 MB.
Current ngspice program size =   15.234 MB.

