
Note: No compatibility mode selected!


Circuit: NAND2 seed characterization sample 92

Doing analysis at TEMP = 39.976200 and TNOM = 27.000000

Using SPARSE 1.3 as Direct Linear Solver

Initial Transient Solution
--------------------------

Node                                   Voltage
----                                   -------
vdd                                     1.9408
in                                           0
out                                     1.9408
nmid                                 0.0443417
vin#branch                                   0
vdd#branch                        -2.57182e-12

 Reference value :  3.66351e-08
 Reference value :  9.43151e-08
No. of Data Rows : 60044

  Measurements for Transient Analysis

tphl                =  1.98977e-10 targ=  2.34900e-09 trig=  2.15003e-09
tplh                =  1.22873e-10 targ=  2.25730e-08 trig=  2.24501e-08
i_vdd_avg           =  -3.90386e-06 from=  5.00000e-09 to=  1.10001e-07
power_avg_uw        =  7.57661e+00


Total analysis time (seconds) = 0.51795

Total elapsed time (seconds) = 0.602 

Total DRAM available = 16384.000 MB.
DRAM currently available =  326.203 MB.
Maximum ngspice program size =   14.312 MB.
Current ngspice program size =   14.312 MB.

