
Note: No compatibility mode selected!


Circuit: NAND2 seed characterization sample 102

Doing analysis at TEMP = 9.984090 and TNOM = 27.000000

Using SPARSE 1.3 as Direct Linear Solver

Initial Transient Solution
--------------------------

Node                                   Voltage
----                                   -------
vdd                                    1.71468
in                                           0
out                                    1.71468
nmid                                0.00267224
vin#branch                                   0
vdd#branch                        -1.73221e-12

 Reference value :  3.42780e-08
 Reference value :  9.22025e-08
No. of Data Rows : 60044

  Measurements for Transient Analysis

tphl                =  4.13245e-10 targ=  2.43901e-09 trig=  2.02576e-09
tplh                =  1.49016e-10 targ=  2.22263e-08 trig=  2.20773e-08
i_vdd_avg           =  -4.56936e-06 from=  5.00000e-09 to=  1.10000e-07
power_avg_uw        =  7.83500e+00


Total analysis time (seconds) = 0.526702

Total elapsed time (seconds) = 0.620 

Total DRAM available = 16384.000 MB.
DRAM currently available =  329.219 MB.
Maximum ngspice program size =   13.891 MB.
Current ngspice program size =   13.078 MB.

