
Note: No compatibility mode selected!


Circuit: NAND2 seed characterization sample 109

Doing analysis at TEMP = 38.159300 and TNOM = 27.000000

Using SPARSE 1.3 as Direct Linear Solver

Initial Transient Solution
--------------------------

Node                                   Voltage
----                                   -------
vdd                                    1.78189
in                                           0
out                                    1.78189
nmid                                 0.0673094
vin#branch                                   0
vdd#branch                        -4.85203e-12

 Reference value :  3.41167e-08
 Reference value :  9.11638e-08
No. of Data Rows : 60041

  Measurements for Transient Analysis

tphl                =  2.48202e-10 targ=  2.40162e-09 trig=  2.15342e-09
tplh                =  1.16878e-10 targ=  2.25771e-08 trig=  2.24603e-08
i_vdd_avg           =  -3.65976e-06 from=  5.00000e-09 to=  1.10001e-07
power_avg_uw        =  6.52129e+00


Total analysis time (seconds) = 0.53894

Total elapsed time (seconds) = 0.629 

Total DRAM available = 16384.000 MB.
DRAM currently available =  312.641 MB.
Maximum ngspice program size =   14.422 MB.
Current ngspice program size =   14.422 MB.

