
Note: No compatibility mode selected!


Circuit: NAND2 seed characterization sample 106

Doing analysis at TEMP = 1.071420 and TNOM = 27.000000

Using SPARSE 1.3 as Direct Linear Solver

Initial Transient Solution
--------------------------

Node                                   Voltage
----                                   -------
vdd                                    1.67576
in                                           0
out                                    1.67576
nmid                                 0.0305651
vin#branch                                   0
vdd#branch                        -1.79022e-12

 Reference value :  3.47427e-08
 Reference value :  9.34118e-08
No. of Data Rows : 60041

  Measurements for Transient Analysis

tphl                =  2.14607e-10 targ=  2.36103e-09 trig=  2.14642e-09
tplh                =  1.09503e-10 targ=  2.25488e-08 trig=  2.24393e-08
i_vdd_avg           =  -9.48936e-07 from=  5.00000e-09 to=  1.10001e-07
power_avg_uw        =  1.59019e+00


Total analysis time (seconds) = 0.524346

Total elapsed time (seconds) = 0.612 

Total DRAM available = 16384.000 MB.
DRAM currently available =  334.500 MB.
Maximum ngspice program size =   14.359 MB.
Current ngspice program size =   14.359 MB.

