
Note: No compatibility mode selected!


Circuit: NAND2 seed characterization sample 103

Doing analysis at TEMP = 4.335940 and TNOM = 27.000000

Using SPARSE 1.3 as Direct Linear Solver

Initial Transient Solution
--------------------------

Node                                   Voltage
----                                   -------
vdd                                    1.96004
in                                           0
out                                    1.96004
nmid                                 0.0513814
vin#branch                                   0
vdd#branch                        -2.44205e-12

 Reference value :  3.63345e-08
 Reference value :  9.31958e-08
No. of Data Rows : 60041

  Measurements for Transient Analysis

tphl                =  2.04916e-10 targ=  2.45230e-09 trig=  2.24738e-09
tplh                =  1.09227e-10 targ=  2.28514e-08 trig=  2.27421e-08
i_vdd_avg           =  -3.90673e-06 from=  5.00000e-09 to=  1.10001e-07
power_avg_uw        =  7.65735e+00


Total analysis time (seconds) = 0.528815

Total elapsed time (seconds) = 0.616 

Total DRAM available = 16384.000 MB.
DRAM currently available =  315.156 MB.
Maximum ngspice program size =   13.781 MB.
Current ngspice program size =   13.781 MB.

