
Note: No compatibility mode selected!


Circuit: NAND2 seed characterization sample 107

Doing analysis at TEMP = 78.254700 and TNOM = 27.000000

Using SPARSE 1.3 as Direct Linear Solver

Initial Transient Solution
--------------------------

Node                                   Voltage
----                                   -------
vdd                                    1.88025
in                                           0
out                                    1.88025
nmid                                 0.0404969
vin#branch                                   0
vdd#branch                        -5.41406e-12

 Reference value :  3.58001e-08
 Reference value :  9.43065e-08
No. of Data Rows : 60044

  Measurements for Transient Analysis

tphl                =  2.31673e-10 targ=  2.31844e-09 trig=  2.08677e-09
tplh                =  1.01961e-10 targ=  2.23623e-08 trig=  2.22603e-08
i_vdd_avg           =  -2.37235e-06 from=  5.00000e-09 to=  1.10000e-07
power_avg_uw        =  4.46061e+00


Total analysis time (seconds) = 0.515039

Total elapsed time (seconds) = 0.602 

Total DRAM available = 16384.000 MB.
DRAM currently available =  305.844 MB.
Maximum ngspice program size =   13.875 MB.
Current ngspice program size =   13.297 MB.

