
Note: No compatibility mode selected!


Circuit: NAND2 seed characterization sample 110

Doing analysis at TEMP = 82.249400 and TNOM = 27.000000

Using SPARSE 1.3 as Direct Linear Solver

Initial Transient Solution
--------------------------

Node                                   Voltage
----                                   -------
vdd                                    1.74231
in                                           0
out                                    1.74231
nmid                                 0.0548329
vin#branch                                   0
vdd#branch                        -7.25954e-12

 Reference value :  3.43726e-08
 Reference value :  9.22318e-08
No. of Data Rows : 60041

  Measurements for Transient Analysis

tphl                =  1.78265e-10 targ=  2.40367e-09 trig=  2.22541e-09
tplh                =  1.15079e-10 targ=  2.27913e-08 trig=  2.26762e-08
i_vdd_avg           =  -1.16949e-06 from=  5.00000e-09 to=  1.10001e-07
power_avg_uw        =  2.03762e+00


Total analysis time (seconds) = 0.52119

Total elapsed time (seconds) = 0.612 

Total DRAM available = 16384.000 MB.
DRAM currently available =  313.344 MB.
Maximum ngspice program size =   15.031 MB.
Current ngspice program size =   15.031 MB.

