
Note: No compatibility mode selected!


Circuit: NAND2 seed characterization sample 112

Doing analysis at TEMP = 67.755900 and TNOM = 27.000000

Using SPARSE 1.3 as Direct Linear Solver

Initial Transient Solution
--------------------------

Node                                   Voltage
----                                   -------
vdd                                    1.92813
in                                           0
out                                    1.92813
nmid                                 0.0439747
vin#branch                                   0
vdd#branch                         -1.9394e-11

 Reference value :  3.46337e-08
 Reference value :  9.32844e-08
No. of Data Rows : 60047

  Measurements for Transient Analysis

tphl                =  1.77659e-10 targ=  2.38634e-09 trig=  2.20868e-09
tplh                =  1.16265e-10 targ=  2.27423e-08 trig=  2.26260e-08
i_vdd_avg           =  -1.03312e-06 from=  5.00000e-09 to=  1.10002e-07
power_avg_uw        =  1.99199e+00


Total analysis time (seconds) = 0.524129

Total elapsed time (seconds) = 0.613 

Total DRAM available = 16384.000 MB.
DRAM currently available =  307.047 MB.
Maximum ngspice program size =   13.938 MB.
Current ngspice program size =   13.938 MB.

