
Note: No compatibility mode selected!


Circuit: NAND2 seed characterization sample 120

Doing analysis at TEMP = 15.621800 and TNOM = 27.000000

Using SPARSE 1.3 as Direct Linear Solver

Initial Transient Solution
--------------------------

Node                                   Voltage
----                                   -------
vdd                                    1.65714
in                                           0
out                                    1.65714
nmid                                0.00178633
vin#branch                                   0
vdd#branch                        -1.67216e-12

 Reference value :  3.77505e-08
 Reference value :  9.76447e-08
No. of Data Rows : 60044

  Measurements for Transient Analysis

tphl                =  7.65423e-10 targ=  2.89329e-09 trig=  2.12787e-09
tplh                =  3.78476e-10 targ=  2.27621e-08 trig=  2.23836e-08
i_vdd_avg           =  -3.29008e-06 from=  5.00000e-09 to=  1.10000e-07
power_avg_uw        =  5.45212e+00


Total analysis time (seconds) = 0.507726

Total elapsed time (seconds) = 0.593 

Total DRAM available = 16384.000 MB.
DRAM currently available =  275.562 MB.
Maximum ngspice program size =   14.016 MB.
Current ngspice program size =   14.016 MB.

