
Note: No compatibility mode selected!


Circuit: NAND2 seed characterization sample 124

Doing analysis at TEMP = 56.231600 and TNOM = 27.000000

Using SPARSE 1.3 as Direct Linear Solver

Initial Transient Solution
--------------------------

Node                                   Voltage
----                                   -------
vdd                                    1.95687
in                                           0
out                                    1.95687
nmid                                  0.055702
vin#branch                                   0
vdd#branch                        -8.82431e-12

 Reference value :  3.16193e-08
 Reference value :  8.80111e-08
No. of Data Rows : 60044

  Measurements for Transient Analysis

tphl                =  1.59282e-10 targ=  2.21935e-09 trig=  2.06007e-09
tplh                =  6.71697e-11 targ=  2.22474e-08 trig=  2.21802e-08
i_vdd_avg           =  -2.10377e-06 from=  5.00000e-09 to=  1.10001e-07
power_avg_uw        =  4.11680e+00


Total analysis time (seconds) = 0.576373

Total elapsed time (seconds) = 0.686 

Total DRAM available = 16384.000 MB.
DRAM currently available =  290.062 MB.
Maximum ngspice program size =   15.719 MB.
Current ngspice program size =   15.703 MB.

