
Note: No compatibility mode selected!


Circuit: NAND2 seed characterization sample 125

Doing analysis at TEMP = 97.727500 and TNOM = 27.000000

Using SPARSE 1.3 as Direct Linear Solver

Initial Transient Solution
--------------------------

Node                                   Voltage
----                                   -------
vdd                                    1.64734
in                                           0
out                                    1.64734
nmid                                  0.048631
vin#branch                                   0
vdd#branch                        -2.43012e-11

 Reference value :  3.40172e-08
 Reference value :  9.00361e-08
No. of Data Rows : 60047

  Measurements for Transient Analysis

tphl                =  2.09971e-10 targ=  2.24651e-09 trig=  2.03654e-09
tplh                =  7.75916e-11 targ=  2.21872e-08 trig=  2.21096e-08
i_vdd_avg           =  -3.44522e-06 from=  5.00000e-09 to=  1.10001e-07
power_avg_uw        =  5.67545e+00


Total analysis time (seconds) = 0.536438

Total elapsed time (seconds) = 0.625 

Total DRAM available = 16384.000 MB.
DRAM currently available =  295.625 MB.
Maximum ngspice program size =   14.172 MB.
Current ngspice program size =   14.172 MB.

