
Note: No compatibility mode selected!


Circuit: NAND2 seed characterization sample 139

Doing analysis at TEMP = 70.881400 and TNOM = 27.000000

Using SPARSE 1.3 as Direct Linear Solver

Initial Transient Solution
--------------------------

Node                                   Voltage
----                                   -------
vdd                                    1.93678
in                                           0
out                                    1.93678
nmid                                 0.0574973
vin#branch                                   0
vdd#branch                        -8.80346e-12

 Reference value :  3.58891e-08
 Reference value :  9.49650e-08
No. of Data Rows : 60044

  Measurements for Transient Analysis

tphl                =  1.93021e-10 targ=  2.35804e-09 trig=  2.16502e-09
tplh                =  8.45108e-11 targ=  2.25796e-08 trig=  2.24951e-08
i_vdd_avg           =  -8.65557e-07 from=  5.00000e-09 to=  1.10001e-07
power_avg_uw        =  1.67639e+00


Total analysis time (seconds) = 0.523747

Total elapsed time (seconds) = 0.611 

Total DRAM available = 16384.000 MB.
DRAM currently available =  202.188 MB.
Maximum ngspice program size =   14.406 MB.
Current ngspice program size =   14.406 MB.

