
Note: No compatibility mode selected!


Circuit: NAND2 seed characterization sample 130

Doing analysis at TEMP = 93.564800 and TNOM = 27.000000

Using SPARSE 1.3 as Direct Linear Solver

Initial Transient Solution
--------------------------

Node                                   Voltage
----                                   -------
vdd                                    1.66268
in                                           0
out                                    1.66268
nmid                                 0.0527587
vin#branch                                   0
vdd#branch                        -1.45971e-10

 Reference value :  3.69943e-08
 Reference value :  9.56527e-08
No. of Data Rows : 60044

  Measurements for Transient Analysis

tphl                =  1.60443e-10 targ=  2.22827e-09 trig=  2.06783e-09
tplh                =  7.24852e-11 targ=  2.22760e-08 trig=  2.22035e-08
i_vdd_avg           =  -2.79739e-06 from=  5.00000e-09 to=  1.10000e-07
power_avg_uw        =  4.65116e+00


Total analysis time (seconds) = 0.519109

Total elapsed time (seconds) = 0.603 

Total DRAM available = 16384.000 MB.
DRAM currently available =  232.609 MB.
Maximum ngspice program size =   14.500 MB.
Current ngspice program size =   14.500 MB.

