
Note: No compatibility mode selected!


Circuit: NAND2 seed characterization sample 134

Doing analysis at TEMP = -16.779400 and TNOM = 27.000000

Using SPARSE 1.3 as Direct Linear Solver

Initial Transient Solution
--------------------------

Node                                   Voltage
----                                   -------
vdd                                    1.81166
in                                           0
out                                    1.81166
nmid                                 0.0021266
vin#branch                                   0
vdd#branch                        -1.82777e-12

 Reference value :  3.24068e-08
 Reference value :  9.01479e-08
No. of Data Rows : 60041

  Measurements for Transient Analysis

tphl                =  6.59519e-10 targ=  2.75497e-09 trig=  2.09545e-09
tplh                =  3.54643e-10 targ=  2.26410e-08 trig=  2.22863e-08
i_vdd_avg           =  -5.49870e-06 from=  5.00000e-09 to=  1.10001e-07
power_avg_uw        =  9.96177e+00


Total analysis time (seconds) = 0.542488

Total elapsed time (seconds) = 0.627 

Total DRAM available = 16384.000 MB.
DRAM currently available =  245.234 MB.
Maximum ngspice program size =   15.047 MB.
Current ngspice program size =   15.047 MB.

