
Note: No compatibility mode selected!


Circuit: NAND2 seed characterization sample 141

Doing analysis at TEMP = -19.821000 and TNOM = 27.000000

Using SPARSE 1.3 as Direct Linear Solver

Initial Transient Solution
--------------------------

Node                                   Voltage
----                                   -------
vdd                                    1.62593
in                                           0
out                                    1.62593
nmid                               0.000161411
vin#branch                                   0
vdd#branch                         -1.6364e-12

 Reference value :  3.83124e-08
 Reference value :  9.98347e-08
No. of Data Rows : 60044

  Measurements for Transient Analysis

tphl                =  2.98232e-10 targ=  2.35408e-09 trig=  2.05585e-09
tplh                =  1.64108e-10 targ=  2.23316e-08 trig=  2.21675e-08
i_vdd_avg           =  -4.51537e-06 from=  5.00000e-09 to=  1.10000e-07
power_avg_uw        =  7.34168e+00


Total analysis time (seconds) = 0.495981

Total elapsed time (seconds) = 0.577 

Total DRAM available = 16384.000 MB.
DRAM currently available =  198.016 MB.
Maximum ngspice program size =   14.094 MB.
Current ngspice program size =   14.094 MB.

