
Note: No compatibility mode selected!


Circuit: NAND2 seed characterization sample 145

Doing analysis at TEMP = 71.812000 and TNOM = 27.000000

Using SPARSE 1.3 as Direct Linear Solver

Initial Transient Solution
--------------------------

Node                                   Voltage
----                                   -------
vdd                                    1.89825
in                                           0
out                                    1.89825
nmid                                 0.0578549
vin#branch                                   0
vdd#branch                        -4.99204e-11

 Reference value :  3.66851e-08
 Reference value :  9.66361e-08
No. of Data Rows : 60047

  Measurements for Transient Analysis

tphl                =  1.84763e-10 targ=  2.35330e-09 trig=  2.16853e-09
tplh                =  1.12876e-10 targ=  2.26185e-08 trig=  2.25056e-08
i_vdd_avg           =  -3.07224e-06 from=  5.00000e-09 to=  1.10001e-07
power_avg_uw        =  5.83188e+00


Total analysis time (seconds) = 0.512272

Total elapsed time (seconds) = 0.594 

Total DRAM available = 16384.000 MB.
DRAM currently available =  177.750 MB.
Maximum ngspice program size =   15.094 MB.
Current ngspice program size =   15.094 MB.

