
Note: No compatibility mode selected!


Circuit: NAND2 seed characterization sample 155

Doing analysis at TEMP = 98.547200 and TNOM = 27.000000

Using SPARSE 1.3 as Direct Linear Solver

Initial Transient Solution
--------------------------

Node                                   Voltage
----                                   -------
vdd                                    1.76819
in                                           0
out                                    1.76819
nmid                                 0.0572185
vin#branch                                   0
vdd#branch                        -2.05623e-11

 Reference value :  3.69844e-08
 Reference value :  9.66697e-08
No. of Data Rows : 60041

  Measurements for Transient Analysis

tphl                =  1.42235e-10 targ=  2.18258e-09 trig=  2.04035e-09
tplh                =  6.76111e-11 targ=  2.21887e-08 trig=  2.21211e-08
i_vdd_avg           =  -1.96713e-06 from=  5.00000e-09 to=  1.10000e-07
power_avg_uw        =  3.47826e+00


Total analysis time (seconds) = 0.504924

Total elapsed time (seconds) = 0.592 

Total DRAM available = 16384.000 MB.
DRAM currently available =  234.297 MB.
Maximum ngspice program size =   13.672 MB.
Current ngspice program size =   13.672 MB.

