
Note: No compatibility mode selected!


Circuit: NOR2 seed characterization sample 169

Doing analysis at TEMP = 4.500360 and TNOM = 27.000000

Using SPARSE 1.3 as Direct Linear Solver

Initial Transient Solution
--------------------------

Node                                   Voltage
----                                   -------
vdd                                    1.95972
in                                           0
out                                    1.95972
pmid                                   1.95972
vin#branch                                   0
vdd#branch                        -3.99057e-12

 Reference value :  3.94465e-08
 Reference value :  9.86558e-08
No. of Data Rows : 60041

  Measurements for Transient Analysis

tphl                =  3.66393e-10 targ=  2.44977e-09 trig=  2.08337e-09
tplh                =  1.92318e-09 targ=  2.41733e-08 trig=  2.22501e-08
i_vdd_avg           =  -5.81232e-06 from=  5.00000e-09 to=  1.10001e-07
power_avg_uw        =  1.13905e+01


Total analysis time (seconds) = 0.499707

Total elapsed time (seconds) = 0.586 

Total DRAM available = 16384.000 MB.
DRAM currently available =  190.094 MB.
Maximum ngspice program size =   15.516 MB.
Current ngspice program size =   15.516 MB.

