
Note: No compatibility mode selected!


Circuit: NOR2 seed characterization sample 164

Doing analysis at TEMP = 49.329900 and TNOM = 27.000000

Using SPARSE 1.3 as Direct Linear Solver

Initial Transient Solution
--------------------------

Node                                   Voltage
----                                   -------
vdd                                    1.67634
in                                           0
out                                    1.67634
pmid                                   1.67634
vin#branch                                   0
vdd#branch                         -3.5079e-12

 Reference value :  3.55563e-08
 Reference value :  9.38257e-08
No. of Data Rows : 60041

  Measurements for Transient Analysis

tphl                =  1.25288e-10 targ=  2.15162e-09 trig=  2.02633e-09
tplh                =  6.22433e-10 targ=  2.27014e-08 trig=  2.20790e-08
i_vdd_avg           =  -1.66504e-06 from=  5.00000e-09 to=  1.10000e-07
power_avg_uw        =  2.79117e+00


Total analysis time (seconds) = 0.522597

Total elapsed time (seconds) = 0.612 

Total DRAM available = 16384.000 MB.
DRAM currently available =  259.547 MB.
Maximum ngspice program size =   12.703 MB.
Current ngspice program size =   12.562 MB.

