
Note: No compatibility mode selected!


Circuit: NOR2 seed characterization sample 165

Doing analysis at TEMP = 36.956700 and TNOM = 27.000000

Using SPARSE 1.3 as Direct Linear Solver

Initial Transient Solution
--------------------------

Node                                   Voltage
----                                   -------
vdd                                    1.77358
in                                           0
out                                    1.77358
pmid                                   1.77358
vin#branch                                   0
vdd#branch                        -4.91334e-11

 Reference value :  3.62285e-08
 Reference value :  9.40659e-08
No. of Data Rows : 60056

  Measurements for Transient Analysis

tphl                =  4.96692e-11 targ=  2.05510e-09 trig=  2.00543e-09
tplh                =  2.14458e-10 targ=  2.22308e-08 trig=  2.20163e-08
i_vdd_avg           =  -2.79729e-06 from=  5.00000e-09 to=  1.10000e-07
power_avg_uw        =  4.96122e+00


Total analysis time (seconds) = 0.524912

Total elapsed time (seconds) = 0.611 

Total DRAM available = 16384.000 MB.
DRAM currently available =  262.828 MB.
Maximum ngspice program size =   14.000 MB.
Current ngspice program size =   12.750 MB.

