
Note: No compatibility mode selected!


Circuit: NOR2 seed characterization sample 168

Doing analysis at TEMP = 2.966290 and TNOM = 27.000000

Using SPARSE 1.3 as Direct Linear Solver

Initial Transient Solution
--------------------------

Node                                   Voltage
----                                   -------
vdd                                    1.63489
in                                           0
out                                    1.63489
pmid                                   1.63489
vin#branch                                   0
vdd#branch                        -6.05913e-12

 Reference value :  3.80054e-08
 Reference value :  9.80442e-08
No. of Data Rows : 60047

  Measurements for Transient Analysis

tphl                =  1.08056e-10 targ=  2.30866e-09 trig=  2.20060e-09
tplh                =  3.15069e-10 targ=  2.29169e-08 trig=  2.26018e-08
i_vdd_avg           =  -2.19813e-06 from=  5.00000e-09 to=  1.10001e-07
power_avg_uw        =  3.59371e+00


Total analysis time (seconds) = 0.503502

Total elapsed time (seconds) = 0.585 

Total DRAM available = 16384.000 MB.
DRAM currently available =  182.422 MB.
Maximum ngspice program size =   15.109 MB.
Current ngspice program size =   15.109 MB.

