
Note: No compatibility mode selected!


Circuit: NOR2 seed characterization sample 167

Doing analysis at TEMP = 51.951100 and TNOM = 27.000000

Using SPARSE 1.3 as Direct Linear Solver

Initial Transient Solution
--------------------------

Node                                   Voltage
----                                   -------
vdd                                    1.82437
in                                           0
out                                    1.82437
pmid                                   1.82437
vin#branch                                   0
vdd#branch                        -4.42999e-12

 Reference value :  3.88961e-08
 Reference value :  9.73365e-08
No. of Data Rows : 60044

  Measurements for Transient Analysis

tphl                =  1.44457e-10 targ=  2.37022e-09 trig=  2.22576e-09
tplh                =  3.74218e-10 targ=  2.30515e-08 trig=  2.26773e-08
i_vdd_avg           =  -2.70229e-06 from=  5.00000e-09 to=  1.10000e-07
power_avg_uw        =  4.92998e+00


Total analysis time (seconds) = 0.504679

Total elapsed time (seconds) = 0.588 

Total DRAM available = 16384.000 MB.
DRAM currently available =  256.188 MB.
Maximum ngspice program size =   13.328 MB.
Current ngspice program size =   13.141 MB.

