
Note: No compatibility mode selected!


Circuit: NOR2 seed characterization sample 161

Doing analysis at TEMP = 72.017600 and TNOM = 27.000000

Using SPARSE 1.3 as Direct Linear Solver

Initial Transient Solution
--------------------------

Node                                   Voltage
----                                   -------
vdd                                    1.80403
in                                           0
out                                    1.80403
pmid                                   1.80403
vin#branch                                   0
vdd#branch                        -6.83611e-12

 Reference value :  3.85966e-08
 Reference value :  9.99708e-08
No. of Data Rows : 60044

  Measurements for Transient Analysis

tphl                =  1.61142e-10 targ=  2.29105e-09 trig=  2.12990e-09
tplh                =  6.05182e-10 targ=  2.29949e-08 trig=  2.23897e-08
i_vdd_avg           =  -5.23375e-06 from=  5.00000e-09 to=  1.10001e-07
power_avg_uw        =  9.44184e+00


Total analysis time (seconds) = 0.49123

Total elapsed time (seconds) = 0.595 

Total DRAM available = 16384.000 MB.
DRAM currently available =  219.203 MB.
Maximum ngspice program size =   16.438 MB.
Current ngspice program size =   16.438 MB.

