
Note: No compatibility mode selected!


Circuit: NOR2 seed characterization sample 172

Doing analysis at TEMP = 35.392700 and TNOM = 27.000000

Using SPARSE 1.3 as Direct Linear Solver

Initial Transient Solution
--------------------------

Node                                   Voltage
----                                   -------
vdd                                    1.86011
in                                           0
out                                    1.86011
pmid                                   1.86011
vin#branch                                   0
vdd#branch                        -5.83012e-12

 Reference value :  3.54733e-08
 Reference value :  9.34172e-08
No. of Data Rows : 60044

  Measurements for Transient Analysis

tphl                =  1.31172e-10 targ=  2.28926e-09 trig=  2.15808e-09
tplh                =  4.02038e-10 targ=  2.28763e-08 trig=  2.24742e-08
i_vdd_avg           =  -4.08571e-06 from=  5.00000e-09 to=  1.10001e-07
power_avg_uw        =  7.59988e+00


Total analysis time (seconds) = 0.523063

Total elapsed time (seconds) = 0.612 

Total DRAM available = 16384.000 MB.
DRAM currently available =  180.281 MB.
Maximum ngspice program size =   14.656 MB.
Current ngspice program size =   14.656 MB.

