
Note: No compatibility mode selected!


Circuit: NOR2 seed characterization sample 176

Doing analysis at TEMP = 92.704500 and TNOM = 27.000000

Using SPARSE 1.3 as Direct Linear Solver

Initial Transient Solution
--------------------------

Node                                   Voltage
----                                   -------
vdd                                    1.91624
in                                           0
out                                    1.91624
pmid                                   1.91624
vin#branch                                   0
vdd#branch                        -2.14251e-11

 Reference value :  3.65509e-08
 Reference value :  9.56949e-08
No. of Data Rows : 60044

  Measurements for Transient Analysis

tphl                =  1.25923e-10 targ=  2.33589e-09 trig=  2.20996e-09
tplh                =  3.27045e-10 targ=  2.29569e-08 trig=  2.26299e-08
i_vdd_avg           =  -3.62834e-06 from=  5.00000e-09 to=  1.10001e-07
power_avg_uw        =  6.95277e+00


Total analysis time (seconds) = 0.508737

Total elapsed time (seconds) = 0.595 

Total DRAM available = 16384.000 MB.
DRAM currently available =  270.719 MB.
Maximum ngspice program size =   13.828 MB.
Current ngspice program size =   13.828 MB.

