
Note: No compatibility mode selected!


Circuit: NOR2 seed characterization sample 177

Doing analysis at TEMP = 88.011700 and TNOM = 27.000000

Using SPARSE 1.3 as Direct Linear Solver

Initial Transient Solution
--------------------------

Node                                   Voltage
----                                   -------
vdd                                    1.87135
in                                           0
out                                    1.87135
pmid                                   1.87135
vin#branch                                   0
vdd#branch                        -4.45848e-10

 Reference value :  3.72269e-08
 Reference value :  9.69519e-08
No. of Data Rows : 60041

  Measurements for Transient Analysis

tphl                =  8.49803e-11 targ=  2.32245e-09 trig=  2.23747e-09
tplh                =  2.47743e-10 targ=  2.29601e-08 trig=  2.27124e-08
i_vdd_avg           =  -1.91479e-06 from=  5.00000e-09 to=  1.10001e-07
power_avg_uw        =  3.58324e+00


Total analysis time (seconds) = 0.518382

Total elapsed time (seconds) = 0.599 

Total DRAM available = 16384.000 MB.
DRAM currently available =  286.453 MB.
Maximum ngspice program size =   15.250 MB.
Current ngspice program size =   15.250 MB.

