
Note: No compatibility mode selected!


Circuit: NOR2 seed characterization sample 178

Doing analysis at TEMP = -7.754410 and TNOM = 27.000000

Using SPARSE 1.3 as Direct Linear Solver

Initial Transient Solution
--------------------------

Node                                   Voltage
----                                   -------
vdd                                    1.76152
in                                           0
out                                    1.76152
pmid                                   1.76152
vin#branch                                   0
vdd#branch                        -3.57993e-12

 Reference value :  3.96871e-08
 Reference value :  1.01528e-07
No. of Data Rows : 60047

  Measurements for Transient Analysis

tphl                =  1.28658e-10 targ=  2.19019e-09 trig=  2.06153e-09
tplh                =  4.52607e-10 targ=  2.26372e-08 trig=  2.21846e-08
i_vdd_avg           =  -5.19329e-06 from=  5.00000e-09 to=  1.10001e-07
power_avg_uw        =  9.14808e+00


Total analysis time (seconds) = 0.489675

Total elapsed time (seconds) = 0.568 

Total DRAM available = 16384.000 MB.
DRAM currently available =  242.922 MB.
Maximum ngspice program size =   14.141 MB.
Current ngspice program size =   14.141 MB.

