
Note: No compatibility mode selected!


Circuit: NOR2 seed characterization sample 171

Doing analysis at TEMP = 21.916400 and TNOM = 27.000000

Using SPARSE 1.3 as Direct Linear Solver

Initial Transient Solution
--------------------------

Node                                   Voltage
----                                   -------
vdd                                     1.7481
in                                           0
out                                     1.7481
pmid                                    1.7481
vin#branch                                   0
vdd#branch                        -1.72634e-11

 Reference value :  3.94324e-08
 Reference value :  9.78787e-08
No. of Data Rows : 60044

  Measurements for Transient Analysis

tphl                =  3.97764e-11 targ=  2.09664e-09 trig=  2.05686e-09
tplh                =  1.17775e-10 targ=  2.22884e-08 trig=  2.21706e-08
i_vdd_avg           =  -1.30100e-06 from=  5.00000e-09 to=  1.10000e-07
power_avg_uw        =  2.27427e+00


Total analysis time (seconds) = 0.514351

Total elapsed time (seconds) = 0.595 

Total DRAM available = 16384.000 MB.
DRAM currently available =  189.703 MB.
Maximum ngspice program size =   14.344 MB.
Current ngspice program size =   14.344 MB.

