
Note: No compatibility mode selected!


Circuit: NOR2 seed characterization sample 174

Doing analysis at TEMP = 30.055000 and TNOM = 27.000000

Using SPARSE 1.3 as Direct Linear Solver

Initial Transient Solution
--------------------------

Node                                   Voltage
----                                   -------
vdd                                    1.85102
in                                           0
out                                    1.85102
pmid                                   1.85102
vin#branch                                   0
vdd#branch                        -1.14929e-11

 Reference value :  3.69090e-08
 Reference value :  9.57600e-08
No. of Data Rows : 60047

  Measurements for Transient Analysis

tphl                =  1.71380e-10 targ=  2.39488e-09 trig=  2.22350e-09
tplh                =  7.30797e-10 targ=  2.34013e-08 trig=  2.26705e-08
i_vdd_avg           =  -2.15172e-06 from=  5.00000e-09 to=  1.10001e-07
power_avg_uw        =  3.98287e+00


Total analysis time (seconds) = 0.510951

Total elapsed time (seconds) = 0.597 

Total DRAM available = 16384.000 MB.
DRAM currently available =  231.000 MB.
Maximum ngspice program size =   15.203 MB.
Current ngspice program size =   15.203 MB.

