
Note: No compatibility mode selected!


Circuit: NOR2 seed characterization sample 170

Doing analysis at TEMP = 82.529500 and TNOM = 27.000000

Using SPARSE 1.3 as Direct Linear Solver

Initial Transient Solution
--------------------------

Node                                   Voltage
----                                   -------
vdd                                    1.97246
in                                           0
out                                    1.97246
pmid                                   1.97246
vin#branch                                   0
vdd#branch                        -1.16664e-11

 Reference value :  3.60509e-08
 Reference value :  9.44039e-08
No. of Data Rows : 60041

  Measurements for Transient Analysis

tphl                =  5.77810e-11 targ=  2.20925e-09 trig=  2.15147e-09
tplh                =  1.87041e-10 targ=  2.26414e-08 trig=  2.24544e-08
i_vdd_avg           =  -1.18200e-06 from=  5.00000e-09 to=  1.10001e-07
power_avg_uw        =  2.33146e+00


Total analysis time (seconds) = 0.519572

Total elapsed time (seconds) = 0.607 

Total DRAM available = 16384.000 MB.
DRAM currently available =  179.406 MB.
Maximum ngspice program size =   12.984 MB.
Current ngspice program size =   12.141 MB.

