
Note: No compatibility mode selected!


Circuit: NOR2 seed characterization sample 179

Doing analysis at TEMP = 85.708400 and TNOM = 27.000000

Using SPARSE 1.3 as Direct Linear Solver

Initial Transient Solution
--------------------------

Node                                   Voltage
----                                   -------
vdd                                    1.77268
in                                           0
out                                    1.77268
pmid                                   1.77268
vin#branch                                   0
vdd#branch                        -1.38084e-11

 Reference value :  3.70379e-08
 Reference value :  9.89615e-08
No. of Data Rows : 60044

  Measurements for Transient Analysis

tphl                =  7.92995e-11 targ=  2.12753e-09 trig=  2.04823e-09
tplh                =  4.38703e-10 targ=  2.25834e-08 trig=  2.21447e-08
i_vdd_avg           =  -3.07751e-06 from=  5.00000e-09 to=  1.10002e-07
power_avg_uw        =  5.45545e+00


Total analysis time (seconds) = 0.499067

Total elapsed time (seconds) = 0.580 

Total DRAM available = 16384.000 MB.
DRAM currently available =  254.062 MB.
Maximum ngspice program size =   14.234 MB.
Current ngspice program size =   14.234 MB.

