
Note: No compatibility mode selected!


Circuit: NOR2 seed characterization sample 185

Doing analysis at TEMP = 81.415700 and TNOM = 27.000000

Using SPARSE 1.3 as Direct Linear Solver

Initial Transient Solution
--------------------------

Node                                   Voltage
----                                   -------
vdd                                    1.66328
in                                           0
out                                    1.66328
pmid                                   1.66328
vin#branch                                   0
vdd#branch                        -9.38852e-12

 Reference value :  3.85800e-08
 Reference value :  1.00371e-07
No. of Data Rows : 60044

  Measurements for Transient Analysis

tphl                =  1.37479e-10 targ=  2.38024e-09 trig=  2.24276e-09
tplh                =  4.13676e-10 targ=  2.31420e-08 trig=  2.27283e-08
i_vdd_avg           =  -1.68685e-06 from=  5.00000e-09 to=  1.10000e-07
power_avg_uw        =  2.80570e+00


Total analysis time (seconds) = 0.501854

Total elapsed time (seconds) = 0.580 

Total DRAM available = 16384.000 MB.
DRAM currently available =  172.156 MB.
Maximum ngspice program size =   14.969 MB.
Current ngspice program size =   14.969 MB.

