
Note: No compatibility mode selected!


Circuit: NOR2 seed characterization sample 182

Doing analysis at TEMP = 91.586200 and TNOM = 27.000000

Using SPARSE 1.3 as Direct Linear Solver

Initial Transient Solution
--------------------------

Node                                   Voltage
----                                   -------
vdd                                    1.95676
in                                           0
out                                    1.95676
pmid                                   1.95676
vin#branch                                   0
vdd#branch                        -5.94419e-12

 Reference value :  3.76891e-08
 Reference value :  9.87250e-08
No. of Data Rows : 60044

  Measurements for Transient Analysis

tphl                =  4.07831e-10 targ=  2.50084e-09 trig=  2.09301e-09
tplh                =  2.15613e-09 targ=  2.44352e-08 trig=  2.22790e-08
i_vdd_avg           =  -3.96749e-06 from=  5.00000e-09 to=  1.10001e-07
power_avg_uw        =  7.76343e+00


Total analysis time (seconds) = 0.499784

Total elapsed time (seconds) = 0.592 

Total DRAM available = 16384.000 MB.
DRAM currently available =  190.641 MB.
Maximum ngspice program size =   15.297 MB.
Current ngspice program size =   15.297 MB.

