
Note: No compatibility mode selected!


Circuit: NOR2 seed characterization sample 187

Doing analysis at TEMP = 45.704600 and TNOM = 27.000000

Using SPARSE 1.3 as Direct Linear Solver

Initial Transient Solution
--------------------------

Node                                   Voltage
----                                   -------
vdd                                    1.94879
in                                           0
out                                    1.94879
pmid                                   1.94879
vin#branch                                   0
vdd#branch                        -9.25813e-12

 Reference value :  3.72685e-08
 Reference value :  9.75167e-08
No. of Data Rows : 60044

  Measurements for Transient Analysis

tphl                =  4.81413e-11 targ=  2.08301e-09 trig=  2.03487e-09
tplh                =  1.34500e-10 targ=  2.22391e-08 trig=  2.21046e-08
i_vdd_avg           =  -2.09238e-06 from=  5.00000e-09 to=  1.10000e-07
power_avg_uw        =  4.07761e+00


Total analysis time (seconds) = 0.503922

Total elapsed time (seconds) = 0.588 

Total DRAM available = 16384.000 MB.
DRAM currently available =  159.344 MB.
Maximum ngspice program size =   14.062 MB.
Current ngspice program size =   14.062 MB.

