
Note: No compatibility mode selected!


Circuit: NOR2 seed characterization sample 180

Doing analysis at TEMP = 14.459000 and TNOM = 27.000000

Using SPARSE 1.3 as Direct Linear Solver

Initial Transient Solution
--------------------------

Node                                   Voltage
----                                   -------
vdd                                    1.96924
in                                           0
out                                    1.96924
pmid                                   1.96924
vin#branch                                   0
vdd#branch                        -6.72197e-12

 Reference value :  3.97415e-08
 Reference value :  1.01922e-07
No. of Data Rows : 60047

  Measurements for Transient Analysis

tphl                =  2.31847e-10 targ=  2.34848e-09 trig=  2.11664e-09
tplh                =  1.04640e-09 targ=  2.33963e-08 trig=  2.23499e-08
i_vdd_avg           =  -5.58339e-06 from=  5.00000e-09 to=  1.10002e-07
power_avg_uw        =  1.09950e+01


Total analysis time (seconds) = 0.490989

Total elapsed time (seconds) = 0.570 

Total DRAM available = 16384.000 MB.
DRAM currently available =  233.375 MB.
Maximum ngspice program size =   14.016 MB.
Current ngspice program size =   14.016 MB.

