
Note: No compatibility mode selected!


Circuit: NOR2 seed characterization sample 192

Doing analysis at TEMP = 38.226600 and TNOM = 27.000000

Using SPARSE 1.3 as Direct Linear Solver

Initial Transient Solution
--------------------------

Node                                   Voltage
----                                   -------
vdd                                     1.6404
in                                           0
out                                     1.6404
pmid                                    1.6404
vin#branch                                   0
vdd#branch                        -2.99632e-11

 Reference value :  3.53723e-08
 Reference value :  9.36686e-08
No. of Data Rows : 60044

  Measurements for Transient Analysis

tphl                =  7.11256e-11 targ=  2.21894e-09 trig=  2.14782e-09
tplh                =  1.99746e-10 targ=  2.26432e-08 trig=  2.24435e-08
i_vdd_avg           =  -1.02436e-06 from=  5.00000e-09 to=  1.10000e-07
power_avg_uw        =  1.68036e+00


Total analysis time (seconds) = 0.518293

Total elapsed time (seconds) = 0.612 

Total DRAM available = 16384.000 MB.
DRAM currently available =  165.531 MB.
Maximum ngspice program size =   14.531 MB.
Current ngspice program size =   14.531 MB.

