
Note: No compatibility mode selected!


Circuit: NOR2 seed characterization sample 198

Doing analysis at TEMP = 94.275700 and TNOM = 27.000000

Using SPARSE 1.3 as Direct Linear Solver

Initial Transient Solution
--------------------------

Node                                   Voltage
----                                   -------
vdd                                     1.9265
in                                           0
out                                     1.9265
pmid                                    1.9265
vin#branch                                   0
vdd#branch                        -1.69598e-09

 Reference value :  3.83354e-08
 Reference value :  9.73822e-08
No. of Data Rows : 60047

  Measurements for Transient Analysis

tphl                =  3.20700e-11 targ=  2.10967e-09 trig=  2.07760e-09
tplh                =  1.14808e-10 targ=  2.23476e-08 trig=  2.22328e-08
i_vdd_avg           =  -1.31123e-06 from=  5.00000e-09 to=  1.10001e-07
power_avg_uw        =  2.52609e+00


Total analysis time (seconds) = 0.512671

Total elapsed time (seconds) = 0.593 

Total DRAM available = 16384.000 MB.
DRAM currently available =  154.406 MB.
Maximum ngspice program size =   14.547 MB.
Current ngspice program size =   14.547 MB.

