
Note: No compatibility mode selected!


Circuit: NOR2 seed characterization sample 193

Doing analysis at TEMP = 39.737300 and TNOM = 27.000000

Using SPARSE 1.3 as Direct Linear Solver

Initial Transient Solution
--------------------------

Node                                   Voltage
----                                   -------
vdd                                    1.94019
in                                           0
out                                    1.94019
pmid                                   1.94019
vin#branch                                   0
vdd#branch                        -1.06569e-11

 Reference value :  3.76583e-08
 Reference value :  9.76697e-08
No. of Data Rows : 60041

  Measurements for Transient Analysis

tphl                =  6.58426e-11 targ=  2.17218e-09 trig=  2.10633e-09
tplh                =  2.21103e-10 targ=  2.25401e-08 trig=  2.23190e-08
i_vdd_avg           =  -2.88074e-06 from=  5.00000e-09 to=  1.10000e-07
power_avg_uw        =  5.58919e+00


Total analysis time (seconds) = 0.508081

Total elapsed time (seconds) = 0.608 

Total DRAM available = 16384.000 MB.
DRAM currently available =  178.969 MB.
Maximum ngspice program size =   14.250 MB.
Current ngspice program size =   14.250 MB.

