
Note: No compatibility mode selected!


Circuit: NOR2 seed characterization sample 194

Doing analysis at TEMP = 63.484400 and TNOM = 27.000000

Using SPARSE 1.3 as Direct Linear Solver

Initial Transient Solution
--------------------------

Node                                   Voltage
----                                   -------
vdd                                    1.80666
in                                           0
out                                    1.80666
pmid                                   1.80666
vin#branch                                   0
vdd#branch                        -5.09323e-12

 Reference value :  3.70320e-08
 Reference value :  9.69585e-08
No. of Data Rows : 60047

  Measurements for Transient Analysis

tphl                =  2.16283e-10 targ=  2.37003e-09 trig=  2.15375e-09
tplh                =  9.18905e-10 targ=  2.33802e-08 trig=  2.24612e-08
i_vdd_avg           =  -5.54427e-06 from=  5.00000e-09 to=  1.10002e-07
power_avg_uw        =  1.00166e+01


Total analysis time (seconds) = 0.501967

Total elapsed time (seconds) = 0.587 

Total DRAM available = 16384.000 MB.
DRAM currently available =  162.953 MB.
Maximum ngspice program size =   14.156 MB.
Current ngspice program size =   14.156 MB.

