
Note: No compatibility mode selected!


Circuit: NOR2 seed characterization sample 204

Doing analysis at TEMP = 68.445600 and TNOM = 27.000000

Using SPARSE 1.3 as Direct Linear Solver

Initial Transient Solution
--------------------------

Node                                   Voltage
----                                   -------
vdd                                    1.85769
in                                           0
out                                    1.85769
pmid                                   1.85769
vin#branch                                   0
vdd#branch                        -4.06541e-10

 Reference value :  3.88527e-08
 Reference value :  9.79339e-08
No. of Data Rows : 60041

  Measurements for Transient Analysis

tphl                =  9.49886e-11 targ=  2.33442e-09 trig=  2.23943e-09
tplh                =  2.66768e-10 targ=  2.29851e-08 trig=  2.27183e-08
i_vdd_avg           =  -3.62887e-06 from=  5.00000e-09 to=  1.10001e-07
power_avg_uw        =  6.74132e+00


Total analysis time (seconds) = 0.510464

Total elapsed time (seconds) = 0.590 

Total DRAM available = 16384.000 MB.
DRAM currently available =  160.297 MB.
Maximum ngspice program size =   14.203 MB.
Current ngspice program size =   14.031 MB.

