
Note: No compatibility mode selected!


Circuit: NOR2 seed characterization sample 206

Doing analysis at TEMP = 9.541980 and TNOM = 27.000000

Using SPARSE 1.3 as Direct Linear Solver

Initial Transient Solution
--------------------------

Node                                   Voltage
----                                   -------
vdd                                    1.78998
in                                           0
out                                    1.78998
pmid                                   1.78998
vin#branch                                   0
vdd#branch                        -3.63257e-12

 Reference value :  3.71265e-08
 Reference value :  9.70107e-08
No. of Data Rows : 60044

  Measurements for Transient Analysis

tphl                =  1.20987e-10 targ=  2.23286e-09 trig=  2.11187e-09
tplh                =  5.13251e-10 targ=  2.28489e-08 trig=  2.23356e-08
i_vdd_avg           =  -4.23479e-06 from=  5.00000e-09 to=  1.10000e-07
power_avg_uw        =  7.58019e+00


Total analysis time (seconds) = 0.497806

Total elapsed time (seconds) = 0.586 

Total DRAM available = 16384.000 MB.
DRAM currently available =  157.016 MB.
Maximum ngspice program size =   14.375 MB.
Current ngspice program size =   14.375 MB.

