
Note: No compatibility mode selected!


Circuit: NOR2 seed characterization sample 218

Doing analysis at TEMP = 40.342200 and TNOM = 27.000000

Using SPARSE 1.3 as Direct Linear Solver

Initial Transient Solution
--------------------------

Node                                   Voltage
----                                   -------
vdd                                    1.71962
in                                           0
out                                    1.71962
pmid                                   1.71962
vin#branch                                   0
vdd#branch                        -3.90995e-12

 Reference value :  3.74550e-08
 Reference value :  9.75780e-08
No. of Data Rows : 60047

  Measurements for Transient Analysis

tphl                =  1.36120e-10 targ=  2.30863e-09 trig=  2.17251e-09
tplh                =  5.11590e-10 targ=  2.30291e-08 trig=  2.25175e-08
i_vdd_avg           =  -2.95487e-06 from=  5.00000e-09 to=  1.10001e-07
power_avg_uw        =  5.08125e+00


Total analysis time (seconds) = 0.504556

Total elapsed time (seconds) = 0.590 

Total DRAM available = 16384.000 MB.
DRAM currently available =  157.297 MB.
Maximum ngspice program size =   14.391 MB.
Current ngspice program size =   14.391 MB.

