
Note: No compatibility mode selected!


Circuit: NOR2 seed characterization sample 212

Doing analysis at TEMP = 69.281400 and TNOM = 27.000000

Using SPARSE 1.3 as Direct Linear Solver

Initial Transient Solution
--------------------------

Node                                   Voltage
----                                   -------
vdd                                    1.69523
in                                           0
out                                    1.69523
pmid                                   1.69523
vin#branch                                   0
vdd#branch                         -4.9307e-12

 Reference value :  3.81882e-08
 Reference value :  9.67836e-08
No. of Data Rows : 60041

  Measurements for Transient Analysis

tphl                =  1.27683e-10 targ=  2.19899e-09 trig=  2.07131e-09
tplh                =  5.16680e-10 targ=  2.27306e-08 trig=  2.22139e-08
i_vdd_avg           =  -3.10663e-06 from=  5.00000e-09 to=  1.10000e-07
power_avg_uw        =  5.26645e+00


Total analysis time (seconds) = 0.506516

Total elapsed time (seconds) = 0.590 

Total DRAM available = 16384.000 MB.
DRAM currently available =  148.016 MB.
Maximum ngspice program size =   12.906 MB.
Current ngspice program size =   12.375 MB.

