
Note: No compatibility mode selected!


Circuit: NOR2 seed characterization sample 217

Doing analysis at TEMP = 24.276000 and TNOM = 27.000000

Using SPARSE 1.3 as Direct Linear Solver

Initial Transient Solution
--------------------------

Node                                   Voltage
----                                   -------
vdd                                    1.78442
in                                           0
out                                    1.78442
pmid                                   1.78442
vin#branch                                   0
vdd#branch                        -5.68896e-12

 Reference value :  3.77012e-08
 Reference value :  9.61721e-08
No. of Data Rows : 60047

  Measurements for Transient Analysis

tphl                =  9.35721e-11 targ=  2.19811e-09 trig=  2.10454e-09
tplh                =  3.45370e-10 targ=  2.26590e-08 trig=  2.23136e-08
i_vdd_avg           =  -4.03229e-06 from=  5.00000e-09 to=  1.10001e-07
power_avg_uw        =  7.19529e+00


Total analysis time (seconds) = 0.521834

Total elapsed time (seconds) = 0.602 

Total DRAM available = 16384.000 MB.
DRAM currently available =  162.844 MB.
Maximum ngspice program size =   14.500 MB.
Current ngspice program size =   14.500 MB.

