
Note: No compatibility mode selected!


Circuit: NOR2 seed characterization sample 216

Doing analysis at TEMP = 1.934420 and TNOM = 27.000000

Using SPARSE 1.3 as Direct Linear Solver

Initial Transient Solution
--------------------------

Node                                   Voltage
----                                   -------
vdd                                    1.88726
in                                           0
out                                    1.88726
pmid                                   1.88726
vin#branch                                   0
vdd#branch                        -9.01886e-12

 Reference value :  3.39994e-08
 Reference value :  9.08832e-08
No. of Data Rows : 60044

  Measurements for Transient Analysis

tphl                =  7.82081e-11 targ=  2.13630e-09 trig=  2.05809e-09
tplh                =  2.78978e-10 targ=  2.24532e-08 trig=  2.21743e-08
i_vdd_avg           =  -5.91439e-06 from=  5.00000e-09 to=  1.10001e-07
power_avg_uw        =  1.11620e+01


Total analysis time (seconds) = 0.546549

Total elapsed time (seconds) = 0.639 

Total DRAM available = 16384.000 MB.
DRAM currently available =  154.125 MB.
Maximum ngspice program size =   15.672 MB.
Current ngspice program size =   15.672 MB.

