
Note: No compatibility mode selected!


Circuit: NOR2 seed characterization sample 222

Doing analysis at TEMP = -2.593650 and TNOM = 27.000000

Using SPARSE 1.3 as Direct Linear Solver

Initial Transient Solution
--------------------------

Node                                   Voltage
----                                   -------
vdd                                    1.92593
in                                           0
out                                    1.92593
pmid                                   1.92593
vin#branch                                   0
vdd#branch                        -7.34409e-12

 Reference value :  3.48752e-08
 Reference value :  9.27671e-08
No. of Data Rows : 60044

  Measurements for Transient Analysis

tphl                =  7.56899e-11 targ=  2.32074e-09 trig=  2.24505e-09
tplh                =  2.45650e-10 targ=  2.29808e-08 trig=  2.27352e-08
i_vdd_avg           =  -3.73223e-06 from=  5.00000e-09 to=  1.10001e-07
power_avg_uw        =  7.18800e+00


Total analysis time (seconds) = 0.534542

Total elapsed time (seconds) = 0.620 

Total DRAM available = 16384.000 MB.
DRAM currently available =  170.828 MB.
Maximum ngspice program size =   14.297 MB.
Current ngspice program size =   14.297 MB.

