
Note: No compatibility mode selected!


Circuit: NOR2 seed characterization sample 239

Doing analysis at TEMP = 0.800425 and TNOM = 27.000000

Using SPARSE 1.3 as Direct Linear Solver

Initial Transient Solution
--------------------------

Node                                   Voltage
----                                   -------
vdd                                    1.77918
in                                           0
out                                    1.77918
pmid                                   1.77918
vin#branch                                   0
vdd#branch                        -3.58313e-12

 Reference value :  3.70547e-08
 Reference value :  9.61758e-08
No. of Data Rows : 60041

  Measurements for Transient Analysis

tphl                =  9.64812e-11 targ=  2.12390e-09 trig=  2.02742e-09
tplh                =  6.76083e-10 targ=  2.27583e-08 trig=  2.20823e-08
i_vdd_avg           =  -2.88258e-06 from=  5.00000e-09 to=  1.10001e-07
power_avg_uw        =  5.12863e+00


Total analysis time (seconds) = 0.513409

Total elapsed time (seconds) = 0.596 

Total DRAM available = 16384.000 MB.
DRAM currently available =  161.656 MB.
Maximum ngspice program size =   13.766 MB.
Current ngspice program size =   13.766 MB.

