
Note: No compatibility mode selected!


Circuit: NOR2 seed characterization sample 234

Doing analysis at TEMP = 71.390200 and TNOM = 27.000000

Using SPARSE 1.3 as Direct Linear Solver

Initial Transient Solution
--------------------------

Node                                   Voltage
----                                   -------
vdd                                     1.9063
in                                           0
out                                     1.9063
pmid                                    1.9063
vin#branch                                   0
vdd#branch                        -1.78297e-10

 Reference value :  3.45774e-08
 Reference value :  9.03382e-08
No. of Data Rows : 60047

  Measurements for Transient Analysis

tphl                =  1.67589e-10 targ=  2.26720e-09 trig=  2.09961e-09
tplh                =  4.82057e-10 targ=  2.27809e-08 trig=  2.22988e-08
i_vdd_avg           =  -6.13913e-06 from=  5.00000e-09 to=  1.10001e-07
power_avg_uw        =  1.17030e+01


Total analysis time (seconds) = 0.548822

Total elapsed time (seconds) = 0.649 

Total DRAM available = 16384.000 MB.
DRAM currently available =  144.375 MB.
Maximum ngspice program size =   14.844 MB.
Current ngspice program size =   14.844 MB.

