
Note: No compatibility mode selected!


Circuit: NOR2 seed characterization sample 232

Doing analysis at TEMP = 7.031340 and TNOM = 27.000000

Using SPARSE 1.3 as Direct Linear Solver

Initial Transient Solution
--------------------------

Node                                   Voltage
----                                   -------
vdd                                    1.81403
in                                           0
out                                    1.81403
pmid                                   1.81403
vin#branch                                   0
vdd#branch                        -3.78729e-12

 Reference value :  3.93999e-08
 Reference value :  9.90445e-08
No. of Data Rows : 60047

  Measurements for Transient Analysis

tphl                =  6.10212e-11 targ=  2.24676e-09 trig=  2.18574e-09
tplh                =  1.71188e-10 targ=  2.27284e-08 trig=  2.25572e-08
i_vdd_avg           =  -6.05260e-07 from=  5.00000e-09 to=  1.10002e-07
power_avg_uw        =  1.09796e+00


Total analysis time (seconds) = 0.500156

Total elapsed time (seconds) = 0.579 

Total DRAM available = 16384.000 MB.
DRAM currently available =  150.812 MB.
Maximum ngspice program size =   14.578 MB.
Current ngspice program size =   14.578 MB.

