
Note: No compatibility mode selected!


Circuit: XOR2 seed characterization sample 249

Doing analysis at TEMP = 73.727900 and TNOM = 27.000000

Using SPARSE 1.3 as Direct Linear Solver

Initial Transient Solution
--------------------------

Node                                   Voltage
----                                   -------
vdd                                     1.7983
in                                           0
b                                       1.7983
abar                                    1.7983
bbar                               3.00138e-09
out                                     1.7983
vb#branch                                    0
vin#branch                         3.60355e-11
vdd#branch                        -7.47723e-11

 Reference value :  1.95908e-08
 Reference value :  5.17848e-08
 Reference value :  8.56848e-08
 Reference value :  1.19611e-07
No. of Data Rows : 60044

  Measurements for Transient Analysis

tphl                =  2.86067e-10 targ=  2.47899e-09 trig=  2.19292e-09
tplh                =  2.87690e-10 targ=  2.28665e-08 trig=  2.25788e-08
i_vdd_avg           =  -4.52117e-06 from=  5.00000e-09 to=  1.10001e-07
power_avg_uw        =  8.13041e+00


Total analysis time (seconds) = 0.912697

Total elapsed time (seconds) = 0.998 

Total DRAM available = 16384.000 MB.
DRAM currently available =  213.562 MB.
Maximum ngspice program size =   14.594 MB.
Current ngspice program size =   14.594 MB.

