
Note: No compatibility mode selected!


Circuit: XOR2 seed characterization sample 241

Doing analysis at TEMP = -14.607200 and TNOM = 27.000000

Using SPARSE 1.3 as Direct Linear Solver

Initial Transient Solution
--------------------------

Node                                   Voltage
----                                   -------
vdd                                    1.96438
in                                           0
b                                      1.96438
abar                                   1.96438
bbar                               1.06703e-09
out                                    1.96438
vb#branch                                    0
vin#branch                         1.97558e-12
vdd#branch                        -1.18485e-11

 Reference value :  2.11596e-08
 Reference value :  5.44716e-08
 Reference value :  8.72056e-08
No. of Data Rows : 60041

  Measurements for Transient Analysis

tphl                =  2.56253e-10 targ=  2.38153e-09 trig=  2.12528e-09
tplh                =  2.71638e-10 targ=  2.26475e-08 trig=  2.23758e-08
i_vdd_avg           =  -5.40624e-06 from=  5.00000e-09 to=  1.10000e-07
power_avg_uw        =  1.06199e+01


Total analysis time (seconds) = 0.918393

Total elapsed time (seconds) = 1.028 

Total DRAM available = 16384.000 MB.
DRAM currently available =  162.344 MB.
Maximum ngspice program size =   14.516 MB.
Current ngspice program size =   14.516 MB.

