
Note: No compatibility mode selected!


Circuit: XOR2 seed characterization sample 240

Doing analysis at TEMP = -18.304400 and TNOM = 27.000000

Using SPARSE 1.3 as Direct Linear Solver

Initial Transient Solution
--------------------------

Node                                   Voltage
----                                   -------
vdd                                    1.81087
in                                           0
b                                      1.81087
abar                                   1.81087
bbar                                1.3443e-09
out                                    1.81087
vb#branch                                    0
vin#branch                         1.83503e-12
vdd#branch                        -1.09475e-11

 Reference value :  2.07536e-08
 Reference value :  5.38076e-08
 Reference value :  8.76496e-08
No. of Data Rows : 60041

  Measurements for Transient Analysis

tphl                =  2.78304e-10 targ=  2.44359e-09 trig=  2.16528e-09
tplh                =  2.85195e-10 targ=  2.27810e-08 trig=  2.24958e-08
i_vdd_avg           =  -4.24178e-06 from=  5.00000e-09 to=  1.10000e-07
power_avg_uw        =  7.68131e+00


Total analysis time (seconds) = 0.905605

Total elapsed time (seconds) = 0.995 

Total DRAM available = 16384.000 MB.
DRAM currently available =  157.438 MB.
Maximum ngspice program size =   14.469 MB.
Current ngspice program size =   14.469 MB.

