
Note: No compatibility mode selected!


Circuit: XOR2 seed characterization sample 243

Doing analysis at TEMP = 96.699000 and TNOM = 27.000000

Using SPARSE 1.3 as Direct Linear Solver

Initial Transient Solution
--------------------------

Node                                   Voltage
----                                   -------
vdd                                    1.85753
in                                           0
b                                      1.85753
abar                                   1.85753
bbar                               4.66333e-09
out                                    1.85753
vb#branch                                    0
vin#branch                         1.76509e-10
vdd#branch                        -2.97337e-10

 Reference value :  2.09890e-08
 Reference value :  5.24550e-08
 Reference value :  8.41970e-08
 Reference value :  1.13217e-07
No. of Data Rows : 60044

  Measurements for Transient Analysis

tphl                =  1.88864e-10 targ=  2.21287e-09 trig=  2.02401e-09
tplh                =  2.60043e-10 targ=  2.23321e-08 trig=  2.20720e-08
i_vdd_avg           =  -5.88324e-06 from=  5.00000e-09 to=  1.10001e-07
power_avg_uw        =  1.09283e+01


Total analysis time (seconds) = 1.04608

Total elapsed time (seconds) = 1.132 

Total DRAM available = 16384.000 MB.
DRAM currently available =  160.594 MB.
Maximum ngspice program size =   14.578 MB.
Current ngspice program size =   14.578 MB.

