
Note: No compatibility mode selected!


Circuit: XOR2 seed characterization sample 242

Doing analysis at TEMP = 77.895700 and TNOM = 27.000000

Using SPARSE 1.3 as Direct Linear Solver

Initial Transient Solution
--------------------------

Node                                   Voltage
----                                   -------
vdd                                    1.95304
in                                           0
b                                      1.95304
abar                                   1.95304
bbar                               1.49217e-08
out                                    1.95304
vb#branch                                    0
vin#branch                         4.17789e-10
vdd#branch                        -7.37724e-10

 Reference value :  2.14771e-08
 Reference value :  5.49771e-08
 Reference value :  8.87171e-08
No. of Data Rows : 60044

  Measurements for Transient Analysis

tphl                =  2.56054e-10 targ=  2.31509e-09 trig=  2.05903e-09
tplh                =  3.42255e-10 targ=  2.25194e-08 trig=  2.21771e-08
i_vdd_avg           =  -7.32253e-06 from=  5.00000e-09 to=  1.10001e-07
power_avg_uw        =  1.43012e+01


Total analysis time (seconds) = 0.899519

Total elapsed time (seconds) = 0.995 

Total DRAM available = 16384.000 MB.
DRAM currently available =  164.672 MB.
Maximum ngspice program size =   13.891 MB.
Current ngspice program size =   13.891 MB.

