
Note: No compatibility mode selected!


Circuit: XOR2 seed characterization sample 245

Doing analysis at TEMP = 7.881050 and TNOM = 27.000000

Using SPARSE 1.3 as Direct Linear Solver

Initial Transient Solution
--------------------------

Node                                   Voltage
----                                   -------
vdd                                    1.89748
in                                           0
b                                      1.89748
abar                                   1.89748
bbar                               2.17206e-09
out                                    1.89748
vb#branch                                    0
vin#branch                         4.60202e-12
vdd#branch                         -1.6237e-11

 Reference value :  1.92582e-08
 Reference value :  5.15062e-08
 Reference value :  8.36362e-08
 Reference value :  1.17561e-07
No. of Data Rows : 60047

  Measurements for Transient Analysis

tphl                =  3.10178e-10 targ=  2.46977e-09 trig=  2.15959e-09
tplh                =  3.07297e-10 targ=  2.27861e-08 trig=  2.24788e-08
i_vdd_avg           =  -4.68958e-06 from=  5.00000e-09 to=  1.10001e-07
power_avg_uw        =  8.89839e+00


Total analysis time (seconds) = 0.923722

Total elapsed time (seconds) = 1.015 

Total DRAM available = 16384.000 MB.
DRAM currently available =  191.141 MB.
Maximum ngspice program size =   15.141 MB.
Current ngspice program size =   15.141 MB.

