
Note: No compatibility mode selected!


Circuit: XOR2 seed characterization sample 255

Doing analysis at TEMP = 40.928600 and TNOM = 27.000000

Using SPARSE 1.3 as Direct Linear Solver

Initial Transient Solution
--------------------------

Node                                   Voltage
----                                   -------
vdd                                     1.7187
in                                           0
b                                       1.7187
abar                                    1.7187
bbar                               7.07414e-09
out                                     1.7187
vb#branch                                    0
vin#branch                         2.19974e-12
vdd#branch                        -1.14034e-11

 Reference value :  2.06840e-08
 Reference value :  5.35420e-08
 Reference value :  8.60700e-08
 Reference value :  1.18705e-07
No. of Data Rows : 60047

  Measurements for Transient Analysis

tphl                =  1.12063e-09 targ=  3.22315e-09 trig=  2.10252e-09
tplh                =  1.43825e-09 targ=  2.37458e-08 trig=  2.23076e-08
i_vdd_avg           =  -4.61893e-06 from=  5.00000e-09 to=  1.10001e-07
power_avg_uw        =  7.93856e+00


Total analysis time (seconds) = 0.921135

Total elapsed time (seconds) = 1.008 

Total DRAM available = 16384.000 MB.
DRAM currently available =  163.422 MB.
Maximum ngspice program size =   14.172 MB.
Current ngspice program size =   14.172 MB.

