
Note: No compatibility mode selected!


Circuit: XOR2 seed characterization sample 257

Doing analysis at TEMP = 60.072200 and TNOM = 27.000000

Using SPARSE 1.3 as Direct Linear Solver

Initial Transient Solution
--------------------------

Node                                   Voltage
----                                   -------
vdd                                    1.62024
in                                           0
b                                      1.62024
abar                                   1.62024
bbar                               6.68672e-09
out                                    1.62024
vb#branch                                    0
vin#branch                         1.45253e-10
vdd#branch                        -2.61836e-10

 Reference value :  2.06916e-08
 Reference value :  5.26436e-08
 Reference value :  8.58616e-08
 Reference value :  1.19546e-07
No. of Data Rows : 60041

  Measurements for Transient Analysis

tphl                =  2.09079e-10 targ=  2.22336e-09 trig=  2.01428e-09
tplh                =  2.77240e-10 targ=  2.23201e-08 trig=  2.20429e-08
i_vdd_avg           =  -5.07453e-06 from=  5.00000e-09 to=  1.10000e-07
power_avg_uw        =  8.22195e+00


Total analysis time (seconds) = 0.918825

Total elapsed time (seconds) = 1.005 

Total DRAM available = 16384.000 MB.
DRAM currently available =  182.406 MB.
Maximum ngspice program size =   15.281 MB.
Current ngspice program size =   15.281 MB.

