
Note: No compatibility mode selected!


Circuit: XOR2 seed characterization sample 256

Doing analysis at TEMP = 50.340200 and TNOM = 27.000000

Using SPARSE 1.3 as Direct Linear Solver

Initial Transient Solution
--------------------------

Node                                   Voltage
----                                   -------
vdd                                    1.80113
in                                           0
b                                      1.80113
abar                                   1.80113
bbar                               1.37513e-09
out                                    1.80113
vb#branch                                    0
vin#branch                         2.39172e-12
vdd#branch                        -1.18352e-11

 Reference value :  1.69352e-08
 Reference value :  4.78212e-08
 Reference value :  8.03714e-08
 Reference value :  1.12477e-07
No. of Data Rows : 60044

  Measurements for Transient Analysis

tphl                =  3.00335e-10 targ=  2.33842e-09 trig=  2.03809e-09
tplh                =  4.63379e-10 targ=  2.25776e-08 trig=  2.21143e-08
i_vdd_avg           =  -5.58046e-06 from=  5.00000e-09 to=  1.10001e-07
power_avg_uw        =  1.00511e+01


Total analysis time (seconds) = 1.01855

Total elapsed time (seconds) = 1.111 

Total DRAM available = 16384.000 MB.
DRAM currently available =  161.719 MB.
Maximum ngspice program size =   15.781 MB.
Current ngspice program size =   15.781 MB.

