
Note: No compatibility mode selected!


Circuit: XOR2 seed characterization sample 254

Doing analysis at TEMP = -9.435550 and TNOM = 27.000000

Using SPARSE 1.3 as Direct Linear Solver

Initial Transient Solution
--------------------------

Node                                   Voltage
----                                   -------
vdd                                    1.83689
in                                           0
b                                      1.83689
abar                                   1.83689
bbar                                8.1113e-10
out                                    1.83689
vb#branch                                    0
vin#branch                         3.64557e-12
vdd#branch                        -1.39894e-11

 Reference value :  2.16006e-08
 Reference value :  5.60286e-08
 Reference value :  9.02106e-08
No. of Data Rows : 60044

  Measurements for Transient Analysis

tphl                =  1.86721e-10 targ=  2.43451e-09 trig=  2.24779e-09
tplh                =  2.66950e-10 targ=  2.30103e-08 trig=  2.27434e-08
i_vdd_avg           =  -4.21088e-06 from=  5.00000e-09 to=  1.10000e-07
power_avg_uw        =  7.73493e+00


Total analysis time (seconds) = 0.893149

Total elapsed time (seconds) = 0.976 

Total DRAM available = 16384.000 MB.
DRAM currently available =  153.734 MB.
Maximum ngspice program size =   16.344 MB.
Current ngspice program size =   16.344 MB.

