
Note: No compatibility mode selected!


Circuit: XOR2 seed characterization sample 259

Doing analysis at TEMP = 91.229500 and TNOM = 27.000000

Using SPARSE 1.3 as Direct Linear Solver

Initial Transient Solution
--------------------------

Node                                   Voltage
----                                   -------
vdd                                    1.85381
in                                           0
b                                      1.85381
abar                                   1.85381
bbar                               2.14923e-09
out                                    1.85381
vb#branch                                    0
vin#branch                         1.02804e-11
vdd#branch                        -2.40052e-11

 Reference value :  2.12662e-08
 Reference value :  5.12682e-08
 Reference value :  7.65633e-08
 Reference value :  1.07537e-07
No. of Data Rows : 60047

  Measurements for Transient Analysis

tphl                =  4.40986e-10 targ=  2.63057e-09 trig=  2.18959e-09
tplh                =  5.31227e-10 targ=  2.31000e-08 trig=  2.25688e-08
i_vdd_avg           =  -6.26099e-06 from=  5.00000e-09 to=  1.10001e-07
power_avg_uw        =  1.16067e+01


Total analysis time (seconds) = 1.14878

Total elapsed time (seconds) = 1.233 

Total DRAM available = 16384.000 MB.
DRAM currently available =  196.719 MB.
Maximum ngspice program size =   15.281 MB.
Current ngspice program size =    9.875 MB.

