
Note: No compatibility mode selected!


Circuit: XOR2 seed characterization sample 250

Doing analysis at TEMP = 24.060600 and TNOM = 27.000000

Using SPARSE 1.3 as Direct Linear Solver

Initial Transient Solution
--------------------------

Node                                   Voltage
----                                   -------
vdd                                    1.88837
in                                           0
b                                      1.88837
abar                                   1.88837
bbar                               1.27553e-09
out                                    1.88837
vb#branch                                    0
vin#branch                         1.96475e-12
vdd#branch                        -1.15019e-11

 Reference value :  2.14998e-08
 Reference value :  5.54698e-08
 Reference value :  8.94498e-08
No. of Data Rows : 60041

  Measurements for Transient Analysis

tphl                =  2.73285e-10 targ=  2.30167e-09 trig=  2.02838e-09
tplh                =  2.78849e-10 targ=  2.23640e-08 trig=  2.20851e-08
i_vdd_avg           =  -5.90556e-06 from=  5.00000e-09 to=  1.10001e-07
power_avg_uw        =  1.11519e+01


Total analysis time (seconds) = 0.886814

Total elapsed time (seconds) = 0.970 

Total DRAM available = 16384.000 MB.
DRAM currently available =  217.281 MB.
Maximum ngspice program size =   13.766 MB.
Current ngspice program size =   13.766 MB.

