
Note: No compatibility mode selected!


Circuit: XOR2 seed characterization sample 261

Doing analysis at TEMP = 51.263000 and TNOM = 27.000000

Using SPARSE 1.3 as Direct Linear Solver

Initial Transient Solution
--------------------------

Node                                   Voltage
----                                   -------
vdd                                    1.82429
in                                           0
b                                      1.82429
abar                                   1.82429
bbar                                1.9484e-09
out                                    1.82429
vb#branch                                    0
vin#branch                         7.54783e-12
vdd#branch                        -1.99109e-11

 Reference value :  2.03130e-08
 Reference value :  5.40650e-08
 Reference value :  8.75950e-08
No. of Data Rows : 60044

  Measurements for Transient Analysis

tphl                =  3.76381e-10 targ=  2.42236e-09 trig=  2.04598e-09
tplh                =  4.11960e-10 targ=  2.25499e-08 trig=  2.21379e-08
i_vdd_avg           =  -6.75082e-06 from=  5.00000e-09 to=  1.10001e-07
power_avg_uw        =  1.23154e+01


Total analysis time (seconds) = 0.894872

Total elapsed time (seconds) = 0.986 

Total DRAM available = 16384.000 MB.
DRAM currently available =  198.469 MB.
Maximum ngspice program size =   13.281 MB.
Current ngspice program size =   12.688 MB.

