
Note: No compatibility mode selected!


Circuit: XOR2 seed characterization sample 267

Doing analysis at TEMP = 5.476840 and TNOM = 27.000000

Using SPARSE 1.3 as Direct Linear Solver

Initial Transient Solution
--------------------------

Node                                   Voltage
----                                   -------
vdd                                    1.70993
in                                           0
b                                      1.70993
abar                                   1.70993
bbar                               9.80823e-10
out                                    1.70993
vb#branch                                    0
vin#branch                         1.91091e-12
vdd#branch                        -1.06673e-11

 Reference value :  2.12304e-08
 Reference value :  5.32964e-08
 Reference value :  8.73244e-08
No. of Data Rows : 60047

  Measurements for Transient Analysis

tphl                =  1.36659e-10 targ=  2.19138e-09 trig=  2.05472e-09
tplh                =  1.70987e-10 targ=  2.23352e-08 trig=  2.21642e-08
i_vdd_avg           =  -2.65319e-06 from=  5.00000e-09 to=  1.10002e-07
power_avg_uw        =  4.53677e+00


Total analysis time (seconds) = 0.91086

Total elapsed time (seconds) = 0.996 

Total DRAM available = 16384.000 MB.
DRAM currently available =  179.406 MB.
Maximum ngspice program size =   15.156 MB.
Current ngspice program size =   14.281 MB.

