
Note: No compatibility mode selected!


Circuit: XOR2 seed characterization sample 265

Doing analysis at TEMP = 12.016000 and TNOM = 27.000000

Using SPARSE 1.3 as Direct Linear Solver

Initial Transient Solution
--------------------------

Node                                   Voltage
----                                   -------
vdd                                    1.63779
in                                           0
b                                      1.63779
abar                                   1.63779
bbar                               1.05274e-09
out                                    1.63779
vb#branch                                    0
vin#branch                         1.66989e-12
vdd#branch                        -9.92014e-12

 Reference value :  2.11350e-08
 Reference value :  5.52010e-08
 Reference value :  8.93210e-08
No. of Data Rows : 60044

  Measurements for Transient Analysis

tphl                =  4.89833e-10 targ=  2.71783e-09 trig=  2.22800e-09
tplh                =  6.60679e-10 targ=  2.33447e-08 trig=  2.26840e-08
i_vdd_avg           =  -6.93688e-06 from=  5.00000e-09 to=  1.10001e-07
power_avg_uw        =  1.13611e+01


Total analysis time (seconds) = 0.885548

Total elapsed time (seconds) = 0.971 

Total DRAM available = 16384.000 MB.
DRAM currently available =  178.672 MB.
Maximum ngspice program size =   15.078 MB.
Current ngspice program size =   15.078 MB.

