
Note: No compatibility mode selected!


Circuit: XOR2 seed characterization sample 262

Doing analysis at TEMP = 54.351200 and TNOM = 27.000000

Using SPARSE 1.3 as Direct Linear Solver

Initial Transient Solution
--------------------------

Node                                   Voltage
----                                   -------
vdd                                    1.83414
in                                           0
b                                      1.83414
abar                                   1.83414
bbar                                2.0432e-09
out                                    1.83414
vb#branch                                    0
vin#branch                         2.58855e-12
vdd#branch                        -1.21662e-11

 Reference value :  2.10046e-08
 Reference value :  5.47226e-08
 Reference value :  8.88946e-08
No. of Data Rows : 60044

  Measurements for Transient Analysis

tphl                =  5.04002e-10 targ=  2.66081e-09 trig=  2.15681e-09
tplh                =  6.02839e-10 targ=  2.30733e-08 trig=  2.24704e-08
i_vdd_avg           =  -6.33340e-06 from=  5.00000e-09 to=  1.10000e-07
power_avg_uw        =  1.16163e+01


Total analysis time (seconds) = 0.889826

Total elapsed time (seconds) = 0.977 

Total DRAM available = 16384.000 MB.
DRAM currently available =  231.469 MB.
Maximum ngspice program size =   13.422 MB.
Current ngspice program size =   13.188 MB.

