
Note: No compatibility mode selected!


Circuit: XOR2 seed characterization sample 266

Doing analysis at TEMP = 30.165600 and TNOM = 27.000000

Using SPARSE 1.3 as Direct Linear Solver

Initial Transient Solution
--------------------------

Node                                   Voltage
----                                   -------
vdd                                    1.64569
in                                           0
b                                      1.64569
abar                                   1.64569
bbar                               6.10631e-09
out                                    1.64569
vb#branch                                    0
vin#branch                          4.3911e-12
vdd#branch                        -1.54454e-11

 Reference value :  2.08704e-08
 Reference value :  5.48864e-08
 Reference value :  8.87704e-08
 Reference value :  1.19480e-07
No. of Data Rows : 60047

  Measurements for Transient Analysis

tphl                =  7.80784e-10 targ=  2.90350e-09 trig=  2.12271e-09
tplh                =  7.60331e-10 targ=  2.31285e-08 trig=  2.23681e-08
i_vdd_avg           =  -4.23343e-06 from=  5.00000e-09 to=  1.10002e-07
power_avg_uw        =  6.96691e+00


Total analysis time (seconds) = 0.919088

Total elapsed time (seconds) = 1.007 

Total DRAM available = 16384.000 MB.
DRAM currently available =  167.625 MB.
Maximum ngspice program size =   15.172 MB.
Current ngspice program size =   15.172 MB.

