
Note: No compatibility mode selected!


Circuit: XOR2 seed characterization sample 269

Doing analysis at TEMP = 38.936000 and TNOM = 27.000000

Using SPARSE 1.3 as Direct Linear Solver

Initial Transient Solution
--------------------------

Node                                   Voltage
----                                   -------
vdd                                    1.75355
in                                           0
b                                      1.75355
abar                                   1.75355
bbar                               1.67351e-09
out                                    1.75355
vb#branch                                    0
vin#branch                         6.51747e-11
vdd#branch                        -1.25212e-10

 Reference value :  1.93891e-08
 Reference value :  5.12871e-08
 Reference value :  8.31111e-08
 Reference value :  1.15221e-07
No. of Data Rows : 60044

  Measurements for Transient Analysis

tphl                =  1.29319e-10 targ=  2.17337e-09 trig=  2.04405e-09
tplh                =  1.76715e-10 targ=  2.23089e-08 trig=  2.21321e-08
i_vdd_avg           =  -4.23624e-06 from=  5.00000e-09 to=  1.10001e-07
power_avg_uw        =  7.42847e+00


Total analysis time (seconds) = 0.959587

Total elapsed time (seconds) = 1.053 

Total DRAM available = 16384.000 MB.
DRAM currently available =  195.844 MB.
Maximum ngspice program size =   13.953 MB.
Current ngspice program size =   13.953 MB.

