
Note: No compatibility mode selected!


Circuit: XOR2 seed characterization sample 278

Doing analysis at TEMP = 52.531700 and TNOM = 27.000000

Using SPARSE 1.3 as Direct Linear Solver

Initial Transient Solution
--------------------------

Node                                   Voltage
----                                   -------
vdd                                    1.73709
in                                           0
b                                      1.73709
abar                                   1.73709
bbar                               4.76289e-09
out                                    1.73709
vb#branch                                    0
vin#branch                          1.2092e-10
vdd#branch                        -1.98126e-10

 Reference value :  1.52177e-08
 Reference value :  4.65557e-08
 Reference value :  7.97264e-08
 Reference value :  1.12372e-07
No. of Data Rows : 60041

  Measurements for Transient Analysis

tphl                =  2.00545e-10 targ=  2.30388e-09 trig=  2.10334e-09
tplh                =  2.20213e-10 targ=  2.25302e-08 trig=  2.23100e-08
i_vdd_avg           =  -4.91708e-06 from=  5.00000e-09 to=  1.10000e-07
power_avg_uw        =  8.54141e+00


Total analysis time (seconds) = 0.971519

Total elapsed time (seconds) = 1.109 

Total DRAM available = 16384.000 MB.
DRAM currently available =  232.609 MB.
Maximum ngspice program size =   19.094 MB.
Current ngspice program size =   19.094 MB.

