
Note: No compatibility mode selected!


Circuit: XOR2 seed characterization sample 274

Doing analysis at TEMP = -19.860100 and TNOM = 27.000000

Using SPARSE 1.3 as Direct Linear Solver

Initial Transient Solution
--------------------------

Node                                   Voltage
----                                   -------
vdd                                    1.90917
in                                           0
b                                      1.90917
abar                                   1.90917
bbar                               1.91136e-09
out                                    1.90917
vb#branch                                    0
vin#branch                         1.91946e-12
vdd#branch                        -1.15155e-11

 Reference value :  2.13739e-08
 Reference value :  5.56199e-08
 Reference value :  8.51119e-08
 Reference value :  1.17011e-07
No. of Data Rows : 60041

  Measurements for Transient Analysis

tphl                =  5.25314e-10 targ=  2.67175e-09 trig=  2.14644e-09
tplh                =  7.24097e-10 targ=  2.31634e-08 trig=  2.24393e-08
i_vdd_avg           =  -6.79986e-06 from=  5.00000e-09 to=  1.10001e-07
power_avg_uw        =  1.29821e+01


Total analysis time (seconds) = 0.957278

Total elapsed time (seconds) = 1.040 

Total DRAM available = 16384.000 MB.
DRAM currently available =  199.969 MB.
Maximum ngspice program size =   14.719 MB.
Current ngspice program size =   14.719 MB.

