
Note: No compatibility mode selected!


Circuit: XOR2 seed characterization sample 279

Doing analysis at TEMP = -3.500110 and TNOM = 27.000000

Using SPARSE 1.3 as Direct Linear Solver

Initial Transient Solution
--------------------------

Node                                   Voltage
----                                   -------
vdd                                    1.97222
in                                           0
b                                      1.97222
abar                                   1.97222
bbar                               2.90611e-09
out                                    1.97222
vb#branch                                    0
vin#branch                         2.01236e-12
vdd#branch                        -1.19381e-11

 Reference value :  1.89824e-08
 Reference value :  4.85084e-08
 Reference value :  8.11497e-08
 Reference value :  1.09844e-07
No. of Data Rows : 60047

  Measurements for Transient Analysis

tphl                =  2.06154e-10 targ=  2.27284e-09 trig=  2.06668e-09
tplh                =  2.03392e-10 targ=  2.24034e-08 trig=  2.22001e-08
i_vdd_avg           =  -2.16614e-06 from=  5.00000e-09 to=  1.10002e-07
power_avg_uw        =  4.27211e+00


Total analysis time (seconds) = 1.0936

Total elapsed time (seconds) = 1.178 

Total DRAM available = 16384.000 MB.
DRAM currently available =  209.859 MB.
Maximum ngspice program size =   14.750 MB.
Current ngspice program size =   14.750 MB.

