
Note: No compatibility mode selected!


Circuit: XOR2 seed characterization sample 276

Doing analysis at TEMP = 99.995300 and TNOM = 27.000000

Using SPARSE 1.3 as Direct Linear Solver

Initial Transient Solution
--------------------------

Node                                   Voltage
----                                   -------
vdd                                    1.84395
in                                           0
b                                      1.84395
abar                                   1.84395
bbar                               7.52041e-09
out                                    1.84395
vb#branch                                    0
vin#branch                         1.69811e-10
vdd#branch                         -2.9879e-10

 Reference value :  2.00599e-08
 Reference value :  5.04739e-08
 Reference value :  8.26239e-08
 Reference value :  1.14897e-07
No. of Data Rows : 60044

  Measurements for Transient Analysis

tphl                =  2.32431e-10 targ=  2.24035e-09 trig=  2.00792e-09
tplh                =  3.07073e-10 targ=  2.23308e-08 trig=  2.20238e-08
i_vdd_avg           =  -6.77226e-06 from=  5.00000e-09 to=  1.10001e-07
power_avg_uw        =  1.24877e+01


Total analysis time (seconds) = 0.955754

Total elapsed time (seconds) = 1.041 

Total DRAM available = 16384.000 MB.
DRAM currently available =  237.188 MB.
Maximum ngspice program size =   15.344 MB.
Current ngspice program size =   15.344 MB.

