
Note: No compatibility mode selected!


Circuit: XOR2 seed characterization sample 273

Doing analysis at TEMP = 48.727900 and TNOM = 27.000000

Using SPARSE 1.3 as Direct Linear Solver

Initial Transient Solution
--------------------------

Node                                   Voltage
----                                   -------
vdd                                    1.89983
in                                           0
b                                      1.89983
abar                                   1.89983
bbar                               1.98452e-09
out                                    1.89983
vb#branch                                    0
vin#branch                         6.48591e-12
vdd#branch                        -1.96411e-11

 Reference value :  1.94307e-08
 Reference value :  5.16087e-08
 Reference value :  8.55847e-08
 Reference value :  1.19716e-07
No. of Data Rows : 60044

  Measurements for Transient Analysis

tphl                =  2.12110e-10 targ=  2.43198e-09 trig=  2.21987e-09
tplh                =  2.21799e-10 targ=  2.28814e-08 trig=  2.26596e-08
i_vdd_avg           =  -2.28467e-06 from=  5.00000e-09 to=  1.10000e-07
power_avg_uw        =  4.34048e+00


Total analysis time (seconds) = 0.909875

Total elapsed time (seconds) = 1.009 

Total DRAM available = 16384.000 MB.
DRAM currently available =  180.188 MB.
Maximum ngspice program size =   15.016 MB.
Current ngspice program size =   15.016 MB.

