
Note: No compatibility mode selected!


Circuit: XOR2 seed characterization sample 282

Doing analysis at TEMP = 13.525900 and TNOM = 27.000000

Using SPARSE 1.3 as Direct Linear Solver

Initial Transient Solution
--------------------------

Node                                   Voltage
----                                   -------
vdd                                    1.70302
in                                           0
b                                      1.70302
abar                                   1.70302
bbar                               1.90132e-09
out                                    1.70302
vb#branch                                    0
vin#branch                         1.85101e-12
vdd#branch                        -1.05559e-11

 Reference value :  1.78787e-08
 Reference value :  4.63327e-08
 Reference value :  7.86584e-08
 Reference value :  1.10440e-07
No. of Data Rows : 60044

  Measurements for Transient Analysis

tphl                =  3.52229e-10 targ=  2.53607e-09 trig=  2.18384e-09
tplh                =  4.15928e-10 targ=  2.29675e-08 trig=  2.25515e-08
i_vdd_avg           =  -3.66187e-06 from=  5.00000e-09 to=  1.10000e-07
power_avg_uw        =  6.23624e+00


Total analysis time (seconds) = 1.03593

Total elapsed time (seconds) = 1.129 

Total DRAM available = 16384.000 MB.
DRAM currently available =  176.453 MB.
Maximum ngspice program size =   16.766 MB.
Current ngspice program size =   16.766 MB.

