
Note: No compatibility mode selected!


Circuit: XOR2 seed characterization sample 283

Doing analysis at TEMP = -1.767440 and TNOM = 27.000000

Using SPARSE 1.3 as Direct Linear Solver

Initial Transient Solution
--------------------------

Node                                   Voltage
----                                   -------
vdd                                    1.75975
in                                           0
b                                      1.75975
abar                                   1.75975
bbar                               4.42598e-09
out                                    1.75975
vb#branch                                    0
vin#branch                         1.77105e-12
vdd#branch                        -1.06207e-11

 Reference value :  2.06776e-08
 Reference value :  5.49276e-08
 Reference value :  8.74076e-08
 Reference value :  1.18508e-07
No. of Data Rows : 60041

  Measurements for Transient Analysis

tphl                =  1.07980e-09 targ=  3.32412e-09 trig=  2.24432e-09
tplh                =  1.27496e-09 targ=  2.40079e-08 trig=  2.27330e-08
i_vdd_avg           =  -5.56041e-06 from=  5.00000e-09 to=  1.10000e-07
power_avg_uw        =  9.78492e+00


Total analysis time (seconds) = 0.945218

Total elapsed time (seconds) = 1.032 

Total DRAM available = 16384.000 MB.
DRAM currently available =  191.688 MB.
Maximum ngspice program size =   14.500 MB.
Current ngspice program size =   14.500 MB.

