
Note: No compatibility mode selected!


Circuit: XOR2 seed characterization sample 288

Doing analysis at TEMP = 26.338400 and TNOM = 27.000000

Using SPARSE 1.3 as Direct Linear Solver

Initial Transient Solution
--------------------------

Node                                   Voltage
----                                   -------
vdd                                    1.66292
in                                           0
b                                      1.66292
abar                                   1.66292
bbar                               3.44243e-09
out                                    1.66292
vb#branch                                    0
vin#branch                         2.00881e-12
vdd#branch                        -1.05934e-11

 Reference value :  2.04721e-08
 Reference value :  5.45921e-08
 Reference value :  8.88801e-08
No. of Data Rows : 60047

  Measurements for Transient Analysis

tphl                =  2.41377e-10 targ=  2.41391e-09 trig=  2.17253e-09
tplh                =  2.76008e-10 targ=  2.27936e-08 trig=  2.25176e-08
i_vdd_avg           =  -1.13661e-06 from=  5.00000e-09 to=  1.10001e-07
power_avg_uw        =  1.89009e+00


Total analysis time (seconds) = 0.888653

Total elapsed time (seconds) = 0.977 

Total DRAM available = 16384.000 MB.
DRAM currently available =  193.047 MB.
Maximum ngspice program size =   14.922 MB.
Current ngspice program size =   14.922 MB.

