
Note: No compatibility mode selected!


Circuit: XOR2 seed characterization sample 280

Doing analysis at TEMP = -10.596900 and TNOM = 27.000000

Using SPARSE 1.3 as Direct Linear Solver

Initial Transient Solution
--------------------------

Node                                   Voltage
----                                   -------
vdd                                    1.68731
in                                           0
b                                      1.68731
abar                                   1.68731
bbar                               9.66947e-10
out                                    1.68731
vb#branch                                    0
vin#branch                         1.69894e-12
vdd#branch                        -1.01874e-11

 Reference value :  1.95012e-08
 Reference value :  5.31032e-08
 Reference value :  8.61752e-08
 Reference value :  1.17289e-07
No. of Data Rows : 60044

  Measurements for Transient Analysis

tphl                =  3.76675e-10 targ=  2.58378e-09 trig=  2.20711e-09
tplh                =  5.73552e-10 targ=  2.31949e-08 trig=  2.26213e-08
i_vdd_avg           =  -5.74803e-06 from=  5.00000e-09 to=  1.10001e-07
power_avg_uw        =  9.69871e+00


Total analysis time (seconds) = 0.94231

Total elapsed time (seconds) = 1.031 

Total DRAM available = 16384.000 MB.
DRAM currently available =  195.094 MB.
Maximum ngspice program size =   16.125 MB.
Current ngspice program size =   16.125 MB.

