
Note: No compatibility mode selected!


Circuit: XOR2 seed characterization sample 284

Doing analysis at TEMP = 76.955000 and TNOM = 27.000000

Using SPARSE 1.3 as Direct Linear Solver

Initial Transient Solution
--------------------------

Node                                   Voltage
----                                   -------
vdd                                    1.91267
in                                           0
b                                      1.91267
abar                                   1.91267
bbar                               1.87845e-08
out                                    1.91267
vb#branch                                    0
vin#branch                         7.43379e-10
vdd#branch                        -1.30147e-09

 Reference value :  1.51010e-08
 Reference value :  4.67010e-08
 Reference value :  7.95470e-08
 Reference value :  1.11707e-07
No. of Data Rows : 60044

  Measurements for Transient Analysis

tphl                =  1.88659e-10 targ=  2.31865e-09 trig=  2.12999e-09
tplh                =  2.34531e-10 targ=  2.26245e-08 trig=  2.23900e-08
i_vdd_avg           =  -6.68404e-06 from=  5.00000e-09 to=  1.10001e-07
power_avg_uw        =  1.27844e+01


Total analysis time (seconds) = 0.964431

Total elapsed time (seconds) = 1.113 

Total DRAM available = 16384.000 MB.
DRAM currently available =  184.156 MB.
Maximum ngspice program size =   19.156 MB.
Current ngspice program size =   19.156 MB.

