
Note: No compatibility mode selected!


Circuit: XOR2 seed characterization sample 297

Doing analysis at TEMP = -12.437200 and TNOM = 27.000000

Using SPARSE 1.3 as Direct Linear Solver

Initial Transient Solution
--------------------------

Node                                   Voltage
----                                   -------
vdd                                    1.72299
in                                           0
b                                      1.72299
abar                                   1.72299
bbar                                1.5342e-09
out                                    1.72299
vb#branch                                    0
vin#branch                         1.75352e-12
vdd#branch                        -1.04249e-11

 Reference value :  1.93694e-08
 Reference value :  5.18634e-08
 Reference value :  8.54994e-08
 Reference value :  1.18428e-07
No. of Data Rows : 60044

  Measurements for Transient Analysis

tphl                =  3.92526e-10 targ=  2.49075e-09 trig=  2.09822e-09
tplh                =  4.12830e-10 targ=  2.27075e-08 trig=  2.22947e-08
i_vdd_avg           =  -5.78740e-06 from=  5.00000e-09 to=  1.10002e-07
power_avg_uw        =  9.97164e+00


Total analysis time (seconds) = 0.92598

Total elapsed time (seconds) = 1.013 

Total DRAM available = 16384.000 MB.
DRAM currently available =  168.641 MB.
Maximum ngspice program size =   14.219 MB.
Current ngspice program size =   14.219 MB.

