
Note: No compatibility mode selected!


Circuit: XOR2 seed characterization sample 294

Doing analysis at TEMP = 21.429200 and TNOM = 27.000000

Using SPARSE 1.3 as Direct Linear Solver

Initial Transient Solution
--------------------------

Node                                   Voltage
----                                   -------
vdd                                     1.7121
in                                           0
b                                       1.7121
abar                                    1.7121
bbar                               5.36167e-09
out                                     1.7121
vb#branch                                    0
vin#branch                          1.8225e-12
vdd#branch                        -1.07121e-11

 Reference value :  1.99538e-08
 Reference value :  5.30698e-08
 Reference value :  8.66738e-08
 Reference value :  1.19973e-07
No. of Data Rows : 60041

  Measurements for Transient Analysis

tphl                =  3.47127e-10 targ=  2.44051e-09 trig=  2.09338e-09
tplh                =  4.27239e-10 targ=  2.27074e-08 trig=  2.22801e-08
i_vdd_avg           =  -1.61663e-06 from=  5.00000e-09 to=  1.10001e-07
power_avg_uw        =  2.76783e+00


Total analysis time (seconds) = 0.907379

Total elapsed time (seconds) = 0.997 

Total DRAM available = 16384.000 MB.
DRAM currently available =  182.484 MB.
Maximum ngspice program size =   15.312 MB.
Current ngspice program size =   15.312 MB.

