
Note: No compatibility mode selected!


Circuit: XOR2 seed characterization sample 293

Doing analysis at TEMP = 44.585300 and TNOM = 27.000000

Using SPARSE 1.3 as Direct Linear Solver

Initial Transient Solution
--------------------------

Node                                   Voltage
----                                   -------
vdd                                    1.83135
in                                           0
b                                      1.83135
abar                                   1.83135
bbar                               3.41069e-09
out                                    1.83135
vb#branch                                    0
vin#branch                         4.94076e-11
vdd#branch                        -1.07723e-10

 Reference value :  1.93572e-08
 Reference value :  5.21872e-08
 Reference value :  8.57632e-08
 Reference value :  1.17799e-07
No. of Data Rows : 60044

  Measurements for Transient Analysis

tphl                =  3.15826e-10 targ=  2.52595e-09 trig=  2.21012e-09
tplh                =  3.08508e-10 targ=  2.29389e-08 trig=  2.26304e-08
i_vdd_avg           =  -7.36781e-06 from=  5.00000e-09 to=  1.10001e-07
power_avg_uw        =  1.34930e+01


Total analysis time (seconds) = 0.927039

Total elapsed time (seconds) = 1.019 

Total DRAM available = 16384.000 MB.
DRAM currently available =  175.109 MB.
Maximum ngspice program size =   15.359 MB.
Current ngspice program size =   15.359 MB.

