
Note: No compatibility mode selected!


Circuit: XOR2 seed characterization sample 290

Doing analysis at TEMP = 67.614400 and TNOM = 27.000000

Using SPARSE 1.3 as Direct Linear Solver

Initial Transient Solution
--------------------------

Node                                   Voltage
----                                   -------
vdd                                    1.63099
in                                           0
b                                      1.63099
abar                                   1.63099
bbar                                1.5824e-08
out                                    1.63099
vb#branch                                    0
vin#branch                         3.59875e-11
vdd#branch                        -8.50762e-11

 Reference value :  2.08289e-08
 Reference value :  5.26689e-08
 Reference value :  8.62029e-08
 Reference value :  1.19963e-07
No. of Data Rows : 60044

  Measurements for Transient Analysis

tphl                =  3.74417e-10 targ=  2.57434e-09 trig=  2.19993e-09
tplh                =  4.59665e-10 targ=  2.30594e-08 trig=  2.25998e-08
i_vdd_avg           =  -1.97327e-06 from=  5.00000e-09 to=  1.10001e-07
power_avg_uw        =  3.21838e+00


Total analysis time (seconds) = 0.918646

Total elapsed time (seconds) = 1.003 

Total DRAM available = 16384.000 MB.
DRAM currently available =  165.797 MB.
Maximum ngspice program size =   14.656 MB.
Current ngspice program size =   14.516 MB.

