
Note: No compatibility mode selected!


Circuit: XOR2 seed characterization sample 298

Doing analysis at TEMP = -2.314460 and TNOM = 27.000000

Using SPARSE 1.3 as Direct Linear Solver

Initial Transient Solution
--------------------------

Node                                   Voltage
----                                   -------
vdd                                    1.68127
in                                           0
b                                      1.68127
abar                                   1.68127
bbar                               1.63364e-09
out                                    1.68127
vb#branch                                    0
vin#branch                         1.69318e-12
vdd#branch                        -1.01512e-11

 Reference value :  2.01952e-08
 Reference value :  5.37212e-08
 Reference value :  8.78212e-08
No. of Data Rows : 60044

  Measurements for Transient Analysis

tphl                =  2.69804e-10 targ=  2.29192e-09 trig=  2.02212e-09
tplh                =  3.33266e-10 targ=  2.23996e-08 trig=  2.20663e-08
i_vdd_avg           =  -3.21427e-06 from=  5.00000e-09 to=  1.10001e-07
power_avg_uw        =  5.40406e+00


Total analysis time (seconds) = 0.900282

Total elapsed time (seconds) = 0.991 

Total DRAM available = 16384.000 MB.
DRAM currently available =  167.031 MB.
Maximum ngspice program size =   14.922 MB.
Current ngspice program size =   14.922 MB.

