
Note: No compatibility mode selected!


Circuit: XOR2 seed characterization sample 302

Doing analysis at TEMP = 69.727100 and TNOM = 27.000000

Using SPARSE 1.3 as Direct Linear Solver

Initial Transient Solution
--------------------------

Node                                   Voltage
----                                   -------
vdd                                    1.65715
in                                           0
b                                      1.65715
abar                                   1.65715
bbar                               1.26146e-08
out                                    1.65715
vb#branch                                    0
vin#branch                         2.97191e-10
vdd#branch                        -5.12478e-10

 Reference value :  1.93509e-08
 Reference value :  5.29269e-08
 Reference value :  8.69229e-08
No. of Data Rows : 60044

  Measurements for Transient Analysis

tphl                =  2.71034e-10 targ=  2.48197e-09 trig=  2.21093e-09
tplh                =  3.47249e-10 targ=  2.29800e-08 trig=  2.26328e-08
i_vdd_avg           =  -5.05702e-06 from=  5.00000e-09 to=  1.10001e-07
power_avg_uw        =  8.38024e+00


Total analysis time (seconds) = 0.893481

Total elapsed time (seconds) = 0.990 

Total DRAM available = 16384.000 MB.
DRAM currently available =  171.141 MB.
Maximum ngspice program size =   13.875 MB.
Current ngspice program size =   13.875 MB.

