
Note: No compatibility mode selected!


Circuit: XOR2 seed characterization sample 307

Doing analysis at TEMP = 89.465600 and TNOM = 27.000000

Using SPARSE 1.3 as Direct Linear Solver

Initial Transient Solution
--------------------------

Node                                   Voltage
----                                   -------
vdd                                    1.97096
in                                           0
b                                      1.97096
abar                                   1.97096
bbar                               2.00894e-09
out                                    1.97096
vb#branch                                    0
vin#branch                         9.79885e-12
vdd#branch                        -2.53441e-11

 Reference value :  1.99993e-08
 Reference value :  5.29153e-08
 Reference value :  8.68273e-08
 Reference value :  1.19988e-07
No. of Data Rows : 60041

  Measurements for Transient Analysis

tphl                =  3.56254e-10 targ=  2.36652e-09 trig=  2.01026e-09
tplh                =  3.96896e-10 targ=  2.24277e-08 trig=  2.20308e-08
i_vdd_avg           =  -7.64257e-06 from=  5.00000e-09 to=  1.10000e-07
power_avg_uw        =  1.50632e+01


Total analysis time (seconds) = 0.906601

Total elapsed time (seconds) = 0.995 

Total DRAM available = 16384.000 MB.
DRAM currently available =  172.625 MB.
Maximum ngspice program size =   13.469 MB.
Current ngspice program size =   13.469 MB.

