
Note: No compatibility mode selected!


Circuit: XOR2 seed characterization sample 303

Doing analysis at TEMP = -12.892800 and TNOM = 27.000000

Using SPARSE 1.3 as Direct Linear Solver

Initial Transient Solution
--------------------------

Node                                   Voltage
----                                   -------
vdd                                    1.81978
in                                           0
b                                      1.81978
abar                                   1.81978
bbar                                4.3925e-09
out                                    1.81978
vb#branch                                    0
vin#branch                         1.83366e-12
vdd#branch                        -1.09911e-11

 Reference value :  2.01773e-08
 Reference value :  5.38573e-08
 Reference value :  8.79873e-08
No. of Data Rows : 60044

  Measurements for Transient Analysis

tphl                =  5.58813e-10 targ=  2.68998e-09 trig=  2.13117e-09
tplh                =  5.80542e-10 targ=  2.29740e-08 trig=  2.23935e-08
i_vdd_avg           =  -3.69464e-06 from=  5.00000e-09 to=  1.10002e-07
power_avg_uw        =  6.72343e+00


Total analysis time (seconds) = 0.895588

Total elapsed time (seconds) = 0.981 

Total DRAM available = 16384.000 MB.
DRAM currently available =  175.844 MB.
Maximum ngspice program size =   14.281 MB.
Current ngspice program size =   14.281 MB.

