
Note: No compatibility mode selected!


Circuit: XOR2 seed characterization sample 301

Doing analysis at TEMP = 0.747388 and TNOM = 27.000000

Using SPARSE 1.3 as Direct Linear Solver

Initial Transient Solution
--------------------------

Node                                   Voltage
----                                   -------
vdd                                    1.77621
in                                           0
b                                      1.77621
abar                                   1.77621
bbar                               2.37289e-09
out                                    1.77621
vb#branch                                    0
vin#branch                         1.78952e-12
vdd#branch                        -1.07222e-11

 Reference value :  2.00252e-08
 Reference value :  5.30172e-08
 Reference value :  8.50452e-08
 Reference value :  1.18733e-07
No. of Data Rows : 60044

  Measurements for Transient Analysis

tphl                =  3.38527e-10 targ=  2.40963e-09 trig=  2.07111e-09
tplh                =  4.96308e-10 targ=  2.27096e-08 trig=  2.22133e-08
i_vdd_avg           =  -3.09567e-06 from=  5.00000e-09 to=  1.10001e-07
power_avg_uw        =  5.49855e+00


Total analysis time (seconds) = 0.926442

Total elapsed time (seconds) = 1.016 

Total DRAM available = 16384.000 MB.
DRAM currently available =  162.234 MB.
Maximum ngspice program size =   14.531 MB.
Current ngspice program size =   14.531 MB.

