
Note: No compatibility mode selected!


Circuit: XOR2 seed characterization sample 308

Doing analysis at TEMP = 10.836300 and TNOM = 27.000000

Using SPARSE 1.3 as Direct Linear Solver

Initial Transient Solution
--------------------------

Node                                   Voltage
----                                   -------
vdd                                    1.79157
in                                           0
b                                      1.79157
abar                                   1.79157
bbar                               1.16358e-09
out                                    1.79157
vb#branch                                    0
vin#branch                         8.03355e-12
vdd#branch                        -2.33113e-11

 Reference value :  2.11408e-08
 Reference value :  5.41608e-08
 Reference value :  8.79088e-08
No. of Data Rows : 60044

  Measurements for Transient Analysis

tphl                =  2.50959e-10 targ=  2.40385e-09 trig=  2.15290e-09
tplh                =  3.68583e-10 targ=  2.28273e-08 trig=  2.24587e-08
i_vdd_avg           =  -5.79497e-06 from=  5.00000e-09 to=  1.10001e-07
power_avg_uw        =  1.03821e+01


Total analysis time (seconds) = 0.914787

Total elapsed time (seconds) = 0.997 

Total DRAM available = 16384.000 MB.
DRAM currently available =  179.469 MB.
Maximum ngspice program size =   14.188 MB.
Current ngspice program size =   14.188 MB.

