
Note: No compatibility mode selected!


Circuit: XOR2 seed characterization sample 305

Doing analysis at TEMP = -15.734500 and TNOM = 27.000000

Using SPARSE 1.3 as Direct Linear Solver

Initial Transient Solution
--------------------------

Node                                   Voltage
----                                   -------
vdd                                    1.91994
in                                           0
b                                      1.91994
abar                                   1.91994
bbar                               7.51271e-10
out                                    1.91994
vb#branch                                    0
vin#branch                         2.54125e-12
vdd#branch                        -1.28358e-11

 Reference value :  1.81526e-08
 Reference value :  4.74766e-08
 Reference value :  7.85002e-08
 Reference value :  1.12182e-07
No. of Data Rows : 60044

  Measurements for Transient Analysis

tphl                =  2.13123e-10 targ=  2.44492e-09 trig=  2.23180e-09
tplh                =  3.14990e-10 targ=  2.30104e-08 trig=  2.26954e-08
i_vdd_avg           =  -6.49898e-06 from=  5.00000e-09 to=  1.10000e-07
power_avg_uw        =  1.24776e+01


Total analysis time (seconds) = 1.03001

Total elapsed time (seconds) = 1.123 

Total DRAM available = 16384.000 MB.
DRAM currently available =  166.234 MB.
Maximum ngspice program size =   14.469 MB.
Current ngspice program size =   14.469 MB.

