
Note: No compatibility mode selected!


Circuit: XOR2 seed characterization sample 318

Doing analysis at TEMP = 61.968900 and TNOM = 27.000000

Using SPARSE 1.3 as Direct Linear Solver

Initial Transient Solution
--------------------------

Node                                   Voltage
----                                   -------
vdd                                    1.72415
in                                           0
b                                      1.72415
abar                                   1.72415
bbar                               1.90355e-09
out                                    1.72415
vb#branch                                    0
vin#branch                         1.30039e-11
vdd#branch                        -2.93571e-11

 Reference value :  2.00984e-08
 Reference value :  5.35684e-08
 Reference value :  8.75304e-08
No. of Data Rows : 60047

  Measurements for Transient Analysis

tphl                =  2.94295e-10 targ=  2.53099e-09 trig=  2.23670e-09
tplh                =  3.18441e-10 targ=  2.30285e-08 trig=  2.27101e-08
i_vdd_avg           =  -3.90316e-06 from=  5.00000e-09 to=  1.10002e-07
power_avg_uw        =  6.72963e+00


Total analysis time (seconds) = 0.890365

Total elapsed time (seconds) = 0.982 

Total DRAM available = 16384.000 MB.
DRAM currently available =  167.562 MB.
Maximum ngspice program size =   14.609 MB.
Current ngspice program size =   14.609 MB.

