
Note: No compatibility mode selected!


Circuit: XOR2 seed characterization sample 319

Doing analysis at TEMP = 82.867400 and TNOM = 27.000000

Using SPARSE 1.3 as Direct Linear Solver

Initial Transient Solution
--------------------------

Node                                   Voltage
----                                   -------
vdd                                    1.85963
in                                           0
b                                      1.85963
abar                                   1.85963
bbar                               1.07066e-08
out                                    1.85963
vb#branch                                    0
vin#branch                         2.54343e-12
vdd#branch                        -1.27627e-11

 Reference value :  2.01323e-08
 Reference value :  5.17183e-08
 Reference value :  8.40103e-08
 Reference value :  1.15666e-07
No. of Data Rows : 60047

  Measurements for Transient Analysis

tphl                =  1.09203e-09 targ=  3.22767e-09 trig=  2.13564e-09
tplh                =  1.23363e-09 targ=  2.36405e-08 trig=  2.24069e-08
i_vdd_avg           =  -3.25097e-06 from=  5.00000e-09 to=  1.10002e-07
power_avg_uw        =  6.04559e+00


Total analysis time (seconds) = 0.952342

Total elapsed time (seconds) = 1.043 

Total DRAM available = 16384.000 MB.
DRAM currently available =  196.219 MB.
Maximum ngspice program size =   14.906 MB.
Current ngspice program size =   13.750 MB.

