
Note: No compatibility mode selected!


Circuit: XOR2 seed characterization sample 314

Doing analysis at TEMP = 20.029100 and TNOM = 27.000000

Using SPARSE 1.3 as Direct Linear Solver

Initial Transient Solution
--------------------------

Node                                   Voltage
----                                   -------
vdd                                    1.92852
in                                           0
b                                      1.92852
abar                                   1.92852
bbar                               1.07348e-09
out                                    1.92852
vb#branch                                    0
vin#branch                         1.78117e-11
vdd#branch                        -4.13932e-11

 Reference value :  1.99473e-08
 Reference value :  5.31773e-08
 Reference value :  8.62833e-08
No. of Data Rows : 60044

  Measurements for Transient Analysis

tphl                =  1.72838e-10 targ=  2.25698e-09 trig=  2.08415e-09
tplh                =  1.79535e-10 targ=  2.24320e-08 trig=  2.22524e-08
i_vdd_avg           =  -6.42426e-06 from=  5.00000e-09 to=  1.10002e-07
power_avg_uw        =  1.23893e+01


Total analysis time (seconds) = 0.906879

Total elapsed time (seconds) = 1.001 

Total DRAM available = 16384.000 MB.
DRAM currently available =  157.672 MB.
Maximum ngspice program size =   14.547 MB.
Current ngspice program size =   14.547 MB.

