
Note: No compatibility mode selected!


Circuit: XOR2 seed characterization sample 311

Doing analysis at TEMP = 79.597600 and TNOM = 27.000000

Using SPARSE 1.3 as Direct Linear Solver

Initial Transient Solution
--------------------------

Node                                   Voltage
----                                   -------
vdd                                    1.86882
in                                           0
b                                      1.86882
abar                                   1.86882
bbar                               1.64558e-08
out                                    1.86882
vb#branch                                    0
vin#branch                         4.20042e-10
vdd#branch                        -7.52697e-10

 Reference value :  2.04482e-08
 Reference value :  5.42862e-08
 Reference value :  8.69742e-08
No. of Data Rows : 60047

  Measurements for Transient Analysis

tphl                =  2.21723e-10 targ=  2.31731e-09 trig=  2.09559e-09
tplh                =  3.16956e-10 targ=  2.26037e-08 trig=  2.22868e-08
i_vdd_avg           =  -5.80636e-06 from=  5.00000e-09 to=  1.10001e-07
power_avg_uw        =  1.08510e+01


Total analysis time (seconds) = 0.905524

Total elapsed time (seconds) = 0.992 

Total DRAM available = 16384.000 MB.
DRAM currently available =  169.344 MB.
Maximum ngspice program size =   14.391 MB.
Current ngspice program size =   14.391 MB.

