
Note: No compatibility mode selected!


Circuit: XOR2 seed characterization sample 317

Doing analysis at TEMP = 9.920730 and TNOM = 27.000000

Using SPARSE 1.3 as Direct Linear Solver

Initial Transient Solution
--------------------------

Node                                   Voltage
----                                   -------
vdd                                    1.67422
in                                           0
b                                      1.67422
abar                                   1.67422
bbar                               1.83238e-09
out                                    1.67422
vb#branch                                    0
vin#branch                         3.67687e-12
vdd#branch                        -1.35504e-11

 Reference value :  1.97551e-08
 Reference value :  5.31171e-08
 Reference value :  8.74471e-08
No. of Data Rows : 60044

  Measurements for Transient Analysis

tphl                =  1.60811e-10 targ=  2.23884e-09 trig=  2.07803e-09
tplh                =  2.18815e-10 targ=  2.24529e-08 trig=  2.22341e-08
i_vdd_avg           =  -1.94050e-06 from=  5.00000e-09 to=  1.10001e-07
power_avg_uw        =  3.24883e+00


Total analysis time (seconds) = 0.895506

Total elapsed time (seconds) = 0.984 

Total DRAM available = 16384.000 MB.
DRAM currently available =  155.266 MB.
Maximum ngspice program size =   14.656 MB.
Current ngspice program size =   14.656 MB.

