
Note: No compatibility mode selected!


Circuit: XOR2 seed characterization sample 313

Doing analysis at TEMP = 17.509400 and TNOM = 27.000000

Using SPARSE 1.3 as Direct Linear Solver

Initial Transient Solution
--------------------------

Node                                   Voltage
----                                   -------
vdd                                    1.84609
in                                           0
b                                      1.84609
abar                                   1.84609
bbar                               2.11938e-09
out                                    1.84609
vb#branch                                    0
vin#branch                          1.8766e-12
vdd#branch                        -1.11722e-11

 Reference value :  1.87924e-08
 Reference value :  5.13284e-08
 Reference value :  8.45684e-08
 Reference value :  1.16932e-07
No. of Data Rows : 60047

  Measurements for Transient Analysis

tphl                =  5.32031e-10 targ=  2.64273e-09 trig=  2.11069e-09
tplh                =  6.37474e-10 targ=  2.29696e-08 trig=  2.23321e-08
i_vdd_avg           =  -6.59144e-06 from=  5.00000e-09 to=  1.10002e-07
power_avg_uw        =  1.21684e+01


Total analysis time (seconds) = 0.932753

Total elapsed time (seconds) = 1.026 

Total DRAM available = 16384.000 MB.
DRAM currently available =  162.500 MB.
Maximum ngspice program size =   15.500 MB.
Current ngspice program size =   15.500 MB.

