
Note: No compatibility mode selected!


Circuit: XOR2 seed characterization sample 310

Doing analysis at TEMP = 55.981100 and TNOM = 27.000000

Using SPARSE 1.3 as Direct Linear Solver

Initial Transient Solution
--------------------------

Node                                   Voltage
----                                   -------
vdd                                    1.93074
in                                           0
b                                      1.93074
abar                                   1.93074
bbar                               2.66857e-09
out                                    1.93074
vb#branch                                    0
vin#branch                          2.3174e-12
vdd#branch                        -1.23335e-11

 Reference value :  2.09832e-08
 Reference value :  5.37172e-08
 Reference value :  8.72132e-08
No. of Data Rows : 60044

  Measurements for Transient Analysis

tphl                =  1.60902e-10 targ=  2.20199e-09 trig=  2.04109e-09
tplh                =  2.53189e-10 targ=  2.23765e-08 trig=  2.21233e-08
i_vdd_avg           =  -1.69539e-06 from=  5.00000e-09 to=  1.10001e-07
power_avg_uw        =  3.27335e+00


Total analysis time (seconds) = 0.911073

Total elapsed time (seconds) = 0.994 

Total DRAM available = 16384.000 MB.
DRAM currently available =  169.953 MB.
Maximum ngspice program size =   14.797 MB.
Current ngspice program size =   14.797 MB.

