
Note: No compatibility mode selected!


Circuit: NAND2 seed characterization sample 4321018

Doing analysis at TEMP = 83.070100 and TNOM = 27.000000

Using SPARSE 1.3 as Direct Linear Solver

Initial Transient Solution
--------------------------

Node                                   Voltage
----                                   -------
vdd                                    1.86779
in                                           0
out                                    1.86779
nmid                                 0.0537141
vin#branch                                   0
vdd#branch                        -6.64374e-12

 Reference value :  4.81785e-08
 Reference value :  1.10042e-07
No. of Data Rows : 60047

  Measurements for Transient Analysis

tphl                =  2.44967e-10 targ=  2.41671e-09 trig=  2.17175e-09
tplh                =  1.25880e-10 targ=  2.26411e-08 trig=  2.25152e-08
i_vdd_avg           =  -2.25490e-06 from=  5.00000e-09 to=  1.10002e-07
power_avg_uw        =  4.21168e+00


Total analysis time (seconds) = 0.466001

Total elapsed time (seconds) = 0.534 

Total DRAM available = 16384.000 MB.
DRAM currently available =  153.812 MB.
Maximum ngspice program size =   12.562 MB.
Current ngspice program size =   11.625 MB.

