
Note: No compatibility mode selected!


Circuit: XOR2 seed characterization sample 4321040

Doing analysis at TEMP = 39.520100 and TNOM = 27.000000

Using SPARSE 1.3 as Direct Linear Solver

Initial Transient Solution
--------------------------

Node                                   Voltage
----                                   -------
vdd                                    1.91885
in                                           0
b                                      1.91885
abar                                   1.91885
bbar                               1.50552e-09
out                                    1.91885
vb#branch                                    0
vin#branch                         4.62078e-12
vdd#branch                        -1.63497e-11

 Reference value :  2.70220e-08
 Reference value :  6.22390e-08
 Reference value :  9.97305e-08
No. of Data Rows : 60047

  Measurements for Transient Analysis

tphl                =  1.59092e-10 targ=  2.21884e-09 trig=  2.05975e-09
tplh                =  1.72044e-10 targ=  2.23513e-08 trig=  2.21792e-08
i_vdd_avg           =  -3.18241e-06 from=  5.00000e-09 to=  1.10002e-07
power_avg_uw        =  6.10657e+00


Total analysis time (seconds) = 0.794176

Total elapsed time (seconds) = 0.864 

Total DRAM available = 16384.000 MB.
DRAM currently available =  164.609 MB.
Maximum ngspice program size =   12.906 MB.
Current ngspice program size =   12.906 MB.

