
Note: No compatibility mode selected!


Circuit: NOR2 seed characterization sample 4321011

Doing analysis at TEMP = 53.035800 and TNOM = 27.000000

Using SPARSE 1.3 as Direct Linear Solver

Initial Transient Solution
--------------------------

Node                                   Voltage
----                                   -------
vdd                                    1.63623
in                                           0
out                                    1.63623
pmid                                   1.63623
vin#branch                                   0
vdd#branch                        -1.18312e-11

 Reference value :  4.73357e-08
 Reference value :  1.09166e-07
No. of Data Rows : 60041

  Measurements for Transient Analysis

tphl                =  1.30627e-10 targ=  2.30696e-09 trig=  2.17633e-09
tplh                =  3.96110e-10 targ=  2.29251e-08 trig=  2.25290e-08
i_vdd_avg           =  -2.54277e-06 from=  5.00000e-09 to=  1.10000e-07
power_avg_uw        =  4.16056e+00


Total analysis time (seconds) = 0.469733

Total elapsed time (seconds) = 0.538 

Total DRAM available = 16384.000 MB.
DRAM currently available =  157.438 MB.
Maximum ngspice program size =   12.562 MB.
Current ngspice program size =   11.703 MB.

