
Note: No compatibility mode selected!


Circuit: XOR2 seed characterization sample 4321032

Doing analysis at TEMP = 4.888260 and TNOM = 27.000000

Using SPARSE 1.3 as Direct Linear Solver

Initial Transient Solution
--------------------------

Node                                   Voltage
----                                   -------
vdd                                    1.71692
in                                           0
b                                      1.71692
abar                                   1.71692
bbar                                4.9263e-09
out                                    1.71692
vb#branch                                    0
vin#branch                         1.75327e-12
vdd#branch                        -1.04114e-11

 Reference value :  2.62204e-08
 Reference value :  6.08517e-08
 Reference value :  9.75677e-08
No. of Data Rows : 60041

  Measurements for Transient Analysis

tphl                =  5.04974e-10 targ=  2.53833e-09 trig=  2.03336e-09
tplh                =  5.87020e-10 targ=  2.26871e-08 trig=  2.21001e-08
i_vdd_avg           =  -2.72620e-06 from=  5.00000e-09 to=  1.10000e-07
power_avg_uw        =  4.68066e+00


Total analysis time (seconds) = 0.808247

Total elapsed time (seconds) = 0.880 

Total DRAM available = 16384.000 MB.
DRAM currently available =  164.781 MB.
Maximum ngspice program size =   12.562 MB.
Current ngspice program size =   11.969 MB.

