
Note: No compatibility mode selected!


Circuit: INV seed characterization sample 4321005

Doing analysis at TEMP = 31.927400 and TNOM = 27.000000

Using SPARSE 1.3 as Direct Linear Solver

Initial Transient Solution
--------------------------

Node                                   Voltage
----                                   -------
vdd                                      1.739
in                                           0
out                                      1.739
vin#branch                                   0
vdd#branch                        -3.35627e-12

 Reference value :  7.56767e-08
No. of Data Rows : 60044

  Measurements for Transient Analysis

tphl                =  1.90485e-10 targ=  2.40241e-09 trig=  2.21192e-09
tplh                =  2.74630e-10 targ=  2.29104e-08 trig=  2.26358e-08
i_vdd_avg           =  -4.05489e-06 from=  5.00000e-09 to=  1.10001e-07
power_avg_uw        =  7.05145e+00


Total analysis time (seconds) = 0.285194

Total elapsed time (seconds) = 0.354 

Total DRAM available = 16384.000 MB.
DRAM currently available =  157.672 MB.
Maximum ngspice program size =   12.562 MB.
Current ngspice program size =   11.594 MB.

