
Note: No compatibility mode selected!


Circuit: INV seed characterization sample 4321037

Doing analysis at TEMP = 4.821510 and TNOM = 27.000000

Using SPARSE 1.3 as Direct Linear Solver

Initial Transient Solution
--------------------------

Node                                   Voltage
----                                   -------
vdd                                    1.82995
in                                           0
out                                    1.82995
vin#branch                                   0
vdd#branch                        -1.88137e-12

 Reference value :  7.54869e-08
No. of Data Rows : 60041

  Measurements for Transient Analysis

tphl                =  7.99745e-11 targ=  2.12244e-09 trig=  2.04247e-09
tplh                =  1.12157e-10 targ=  2.22396e-08 trig=  2.21274e-08
i_vdd_avg           =  -9.00840e-07 from=  5.00000e-09 to=  1.10001e-07
power_avg_uw        =  1.64849e+00


Total analysis time (seconds) = 0.287435

Total elapsed time (seconds) = 0.356 

Total DRAM available = 16384.000 MB.
DRAM currently available =  162.891 MB.
Maximum ngspice program size =   12.562 MB.
Current ngspice program size =   11.953 MB.

