
Note: No compatibility mode selected!


Circuit: INV seed characterization sample 4321001

Doing analysis at TEMP = -9.829030 and TNOM = 27.000000

Using SPARSE 1.3 as Direct Linear Solver

Initial Transient Solution
--------------------------

Node                                   Voltage
----                                   -------
vdd                                    1.83127
in                                           0
out                                    1.83127
vin#branch                                   0
vdd#branch                        -1.88265e-12

 Reference value :  7.25977e-08
No. of Data Rows : 60044

  Measurements for Transient Analysis

tphl                =  1.85625e-10 targ=  2.36781e-09 trig=  2.18218e-09
tplh                =  2.27486e-10 targ=  2.27740e-08 trig=  2.25465e-08
i_vdd_avg           =  -5.17699e-06 from=  5.00000e-09 to=  1.10002e-07
power_avg_uw        =  9.48047e+00


Total analysis time (seconds) = 0.299429

Total elapsed time (seconds) = 0.371 

Total DRAM available = 16384.000 MB.
DRAM currently available =  159.438 MB.
Maximum ngspice program size =   12.688 MB.
Current ngspice program size =   12.688 MB.

