
Note: No compatibility mode selected!


Circuit: INV seed characterization sample 4321013

Doing analysis at TEMP = 89.420700 and TNOM = 27.000000

Using SPARSE 1.3 as Direct Linear Solver

Initial Transient Solution
--------------------------

Node                                   Voltage
----                                   -------
vdd                                    1.70805
in                                           0
out                                    1.70805
vin#branch                                   0
vdd#branch                        -1.22487e-11

 Reference value :  7.35863e-08
No. of Data Rows : 60044

  Measurements for Transient Analysis

tphl                =  4.08720e-10 targ=  2.48054e-09 trig=  2.07182e-09
tplh                =  4.42189e-10 targ=  2.26576e-08 trig=  2.22155e-08
i_vdd_avg           =  -3.02758e-06 from=  5.00000e-09 to=  1.10000e-07
power_avg_uw        =  5.17125e+00


Total analysis time (seconds) = 0.296011

Total elapsed time (seconds) = 0.364 

Total DRAM available = 16384.000 MB.
DRAM currently available =  151.047 MB.
Maximum ngspice program size =   12.562 MB.
Current ngspice program size =   11.938 MB.

