
Note: No compatibility mode selected!


Circuit: NAND2 seed characterization sample 4321022

Doing analysis at TEMP = 39.560500 and TNOM = 27.000000

Using SPARSE 1.3 as Direct Linear Solver

Initial Transient Solution
--------------------------

Node                                   Voltage
----                                   -------
vdd                                    1.84713
in                                           0
out                                    1.84713
nmid                                 0.0351205
vin#branch                                   0
vdd#branch                        -2.00999e-12

 Reference value :  4.70497e-08
 Reference value :  1.07888e-07
No. of Data Rows : 60041

  Measurements for Transient Analysis

tphl                =  3.00303e-10 targ=  2.52667e-09 trig=  2.22637e-09
tplh                =  1.80357e-10 targ=  2.28595e-08 trig=  2.26791e-08
i_vdd_avg           =  -1.20134e-06 from=  5.00000e-09 to=  1.10000e-07
power_avg_uw        =  2.21903e+00


Total analysis time (seconds) = 0.473191

Total elapsed time (seconds) = 0.543 

Total DRAM available = 16384.000 MB.
DRAM currently available =  155.578 MB.
Maximum ngspice program size =   12.562 MB.
Current ngspice program size =   11.875 MB.

