
Note: No compatibility mode selected!


Circuit: NOR2 seed characterization sample 4321047

Doing analysis at TEMP = 47.132100 and TNOM = 27.000000

Using SPARSE 1.3 as Direct Linear Solver

Initial Transient Solution
--------------------------

Node                                   Voltage
----                                   -------
vdd                                    1.62612
in                                           0
out                                    1.62612
pmid                                   1.62612
vin#branch                                   0
vdd#branch                        -5.32756e-12

 Reference value :  4.58480e-08
 Reference value :  1.05637e-07
No. of Data Rows : 60041

  Measurements for Transient Analysis

tphl                =  2.89935e-10 targ=  2.48743e-09 trig=  2.19750e-09
tplh                =  1.13499e-09 targ=  2.37275e-08 trig=  2.25925e-08
i_vdd_avg           =  -4.24741e-06 from=  5.00000e-09 to=  1.10001e-07
power_avg_uw        =  6.90679e+00


Total analysis time (seconds) = 0.48202

Total elapsed time (seconds) = 0.553 

Total DRAM available = 16384.000 MB.
DRAM currently available =  150.688 MB.
Maximum ngspice program size =   12.562 MB.
Current ngspice program size =   11.906 MB.

