
Note: No compatibility mode selected!


Circuit: INV seed characterization sample 4321021

Doing analysis at TEMP = 55.579100 and TNOM = 27.000000

Using SPARSE 1.3 as Direct Linear Solver

Initial Transient Solution
--------------------------

Node                                   Voltage
----                                   -------
vdd                                    1.80562
in                                           0
out                                    1.80562
vin#branch                                   0
vdd#branch                        -3.09127e-12

 Reference value :  7.28296e-08
No. of Data Rows : 60044

  Measurements for Transient Analysis

tphl                =  4.26653e-10 targ=  2.63180e-09 trig=  2.20515e-09
tplh                =  4.98093e-10 targ=  2.31135e-08 trig=  2.26155e-08
i_vdd_avg           =  -2.57576e-06 from=  5.00000e-09 to=  1.10002e-07
power_avg_uw        =  4.65085e+00


Total analysis time (seconds) = 0.298559

Total elapsed time (seconds) = 0.367 

Total DRAM available = 16384.000 MB.
DRAM currently available =  155.578 MB.
Maximum ngspice program size =   12.562 MB.
Current ngspice program size =   11.656 MB.

