
Note: No compatibility mode selected!


Circuit: NAND2 seed characterization sample 4321026

Doing analysis at TEMP = 16.263400 and TNOM = 27.000000

Using SPARSE 1.3 as Direct Linear Solver

Initial Transient Solution
--------------------------

Node                                   Voltage
----                                   -------
vdd                                    1.62719
in                                           0
out                                    1.62719
nmid                                  0.022779
vin#branch                                   0
vdd#branch                         -1.7151e-12

 Reference value :  4.64110e-08
 Reference value :  1.07731e-07
No. of Data Rows : 60044

  Measurements for Transient Analysis

tphl                =  2.20091e-10 targ=  2.24209e-09 trig=  2.02200e-09
tplh                =  1.05479e-10 targ=  2.21715e-08 trig=  2.20660e-08
i_vdd_avg           =  -2.17049e-06 from=  5.00000e-09 to=  1.10001e-07
power_avg_uw        =  3.53179e+00


Total analysis time (seconds) = 0.471459

Total elapsed time (seconds) = 0.542 

Total DRAM available = 16384.000 MB.
DRAM currently available =  149.359 MB.
Maximum ngspice program size =   12.562 MB.
Current ngspice program size =   11.594 MB.

