
Note: No compatibility mode selected!


Circuit: XOR2 seed characterization sample 4321016

Doing analysis at TEMP = 84.839000 and TNOM = 27.000000

Using SPARSE 1.3 as Direct Linear Solver

Initial Transient Solution
--------------------------

Node                                   Voltage
----                                   -------
vdd                                    1.79767
in                                           0
b                                      1.79767
abar                                   1.79767
bbar                               7.29307e-09
out                                    1.79767
vb#branch                                    0
vin#branch                         2.04964e-11
vdd#branch                        -4.36398e-11

 Reference value :  2.65159e-08
 Reference value :  6.11985e-08
 Reference value :  9.80105e-08
No. of Data Rows : 60047

  Measurements for Transient Analysis

tphl                =  5.57733e-10 targ=  2.80347e-09 trig=  2.24573e-09
tplh                =  5.50306e-10 targ=  2.32875e-08 trig=  2.27372e-08
i_vdd_avg           =  -4.26650e-06 from=  5.00000e-09 to=  1.10002e-07
power_avg_uw        =  7.66976e+00


Total analysis time (seconds) = 0.806749

Total elapsed time (seconds) = 0.877 

Total DRAM available = 16384.000 MB.
DRAM currently available =  147.656 MB.
Maximum ngspice program size =   12.578 MB.
Current ngspice program size =   11.938 MB.

