
Note: No compatibility mode selected!


Circuit: NAND2 seed characterization sample 4321030

Doing analysis at TEMP = 9.831510 and TNOM = 27.000000

Using SPARSE 1.3 as Direct Linear Solver

Initial Transient Solution
--------------------------

Node                                   Voltage
----                                   -------
vdd                                    1.78303
in                                           0
out                                    1.78303
nmid                                 0.0226935
vin#branch                                   0
vdd#branch                        -1.86733e-12

 Reference value :  4.68173e-08
 Reference value :  1.07372e-07
No. of Data Rows : 60044

  Measurements for Transient Analysis

tphl                =  1.68860e-10 targ=  2.17799e-09 trig=  2.00913e-09
tplh                =  8.06132e-11 targ=  2.21080e-08 trig=  2.20274e-08
i_vdd_avg           =  -3.00410e-06 from=  5.00000e-09 to=  1.10002e-07
power_avg_uw        =  5.35641e+00


Total analysis time (seconds) = 0.475599

Total elapsed time (seconds) = 0.545 

Total DRAM available = 16384.000 MB.
DRAM currently available =  167.656 MB.
Maximum ngspice program size =   14.109 MB.
Current ngspice program size =   14.109 MB.

