
Note: No compatibility mode selected!


Circuit: INV seed characterization sample 4321029

Doing analysis at TEMP = -2.527230 and TNOM = 27.000000

Using SPARSE 1.3 as Direct Linear Solver

Initial Transient Solution
--------------------------

Node                                   Voltage
----                                   -------
vdd                                    1.96894
in                                           0
out                                    1.96894
vin#branch                                   0
vdd#branch                        -2.02549e-12

 Reference value :  7.22762e-08
No. of Data Rows : 60044

  Measurements for Transient Analysis

tphl                =  1.53779e-10 targ=  2.30959e-09 trig=  2.15581e-09
tplh                =  1.60306e-10 targ=  2.26277e-08 trig=  2.24674e-08
i_vdd_avg           =  -2.64838e-06 from=  5.00000e-09 to=  1.10000e-07
power_avg_uw        =  5.21450e+00


Total analysis time (seconds) = 0.298737

Total elapsed time (seconds) = 0.369 

Total DRAM available = 16384.000 MB.
DRAM currently available =  167.656 MB.
Maximum ngspice program size =   12.562 MB.
Current ngspice program size =   12.062 MB.

