
Note: No compatibility mode selected!


Circuit: INV seed characterization sample 4321017

Doing analysis at TEMP = -12.965300 and TNOM = 27.000000

Using SPARSE 1.3 as Direct Linear Solver

Initial Transient Solution
--------------------------

Node                                   Voltage
----                                   -------
vdd                                    1.66999
in                                           0
out                                    1.66999
vin#branch                                   0
vdd#branch                        -1.68901e-12

 Reference value :  7.40627e-08
No. of Data Rows : 60044

  Measurements for Transient Analysis

tphl                =  1.62610e-10 targ=  2.23954e-09 trig=  2.07693e-09
tplh                =  2.27339e-10 targ=  2.24581e-08 trig=  2.22308e-08
i_vdd_avg           =  -2.16836e-06 from=  5.00000e-09 to=  1.10001e-07
power_avg_uw        =  3.62114e+00


Total analysis time (seconds) = 0.287431

Total elapsed time (seconds) = 0.357 

Total DRAM available = 16384.000 MB.
DRAM currently available =  153.812 MB.
Maximum ngspice program size =   12.562 MB.
Current ngspice program size =   11.625 MB.

