
Note: No compatibility mode selected!


Circuit: NOR2 seed characterization sample 4321035

Doing analysis at TEMP = 97.352400 and TNOM = 27.000000

Using SPARSE 1.3 as Direct Linear Solver

Initial Transient Solution
--------------------------

Node                                   Voltage
----                                   -------
vdd                                    1.92166
in                                           0
out                                    1.92166
pmid                                   1.92166
vin#branch                                   0
vdd#branch                        -1.10116e-10

 Reference value :  4.58656e-08
 Reference value :  1.06218e-07
No. of Data Rows : 60041

  Measurements for Transient Analysis

tphl                =  4.26694e-11 targ=  2.09495e-09 trig=  2.05228e-09
tplh                =  9.86252e-11 targ=  2.22555e-08 trig=  2.21569e-08
i_vdd_avg           =  -1.02031e-06 from=  5.00000e-09 to=  1.10000e-07
power_avg_uw        =  1.96069e+00


Total analysis time (seconds) = 0.481175

Total elapsed time (seconds) = 0.551 

Total DRAM available = 16384.000 MB.
DRAM currently available =  164.172 MB.
Maximum ngspice program size =   12.562 MB.
Current ngspice program size =   11.938 MB.

