
Note: No compatibility mode selected!


Circuit: NAND2 seed characterization sample 4321042

Doing analysis at TEMP = -12.804800 and TNOM = 27.000000

Using SPARSE 1.3 as Direct Linear Solver

Initial Transient Solution
--------------------------

Node                                   Voltage
----                                   -------
vdd                                    1.96826
in                                           0
out                                    1.96826
nmid                                 0.0058139
vin#branch                                   0
vdd#branch                         -1.9949e-12

 Reference value :  4.70394e-08
 Reference value :  1.08518e-07
No. of Data Rows : 60044

  Measurements for Transient Analysis

tphl                =  2.43535e-10 targ=  2.40575e-09 trig=  2.16221e-09
tplh                =  1.69088e-10 targ=  2.26557e-08 trig=  2.24866e-08
i_vdd_avg           =  -3.80604e-06 from=  5.00000e-09 to=  1.10002e-07
power_avg_uw        =  7.49127e+00


Total analysis time (seconds) = 0.469695

Total elapsed time (seconds) = 0.540 

Total DRAM available = 16384.000 MB.
DRAM currently available =  162.391 MB.
Maximum ngspice program size =   12.609 MB.
Current ngspice program size =   11.641 MB.

