
Note: No compatibility mode selected!


Circuit: NOR2 seed characterization sample 4414027

Doing analysis at TEMP = 34.439900 and TNOM = 27.000000

Using SPARSE 1.3 as Direct Linear Solver

Initial Transient Solution
--------------------------

Node                                   Voltage
----                                   -------
vdd                                    1.70285
in                                           0
out                                    1.70285
pmid                                   1.70285
vin#branch                                   0
vdd#branch                        -3.47042e-12

 Reference value :  4.60064e-08
 Reference value :  1.06288e-07
No. of Data Rows : 60047

  Measurements for Transient Analysis

tphl                =  3.75231e-10 targ=  2.53994e-09 trig=  2.16470e-09
tplh                =  1.62573e-09 targ=  2.41198e-08 trig=  2.24941e-08
i_vdd_avg           =  -4.44661e-06 from=  5.00000e-09 to=  1.10002e-07
power_avg_uw        =  7.57192e+00


Total analysis time (seconds) = 0.479374

Total elapsed time (seconds) = 0.550 

Total DRAM available = 16384.000 MB.
DRAM currently available =  239.297 MB.
Maximum ngspice program size =   12.562 MB.
Current ngspice program size =   11.953 MB.

