
Note: No compatibility mode selected!


Circuit: XOR2 seed characterization sample 4414004

Doing analysis at TEMP = 80.030600 and TNOM = 27.000000

Using SPARSE 1.3 as Direct Linear Solver

Initial Transient Solution
--------------------------

Node                                   Voltage
----                                   -------
vdd                                    1.86708
in                                           0
b                                      1.86708
abar                                   1.86708
bbar                               9.30405e-09
out                                    1.86708
vb#branch                                    0
vin#branch                         2.48681e-12
vdd#branch                        -1.24093e-11

 Reference value :  2.67667e-08
 Reference value :  6.21028e-08
 Reference value :  1.00013e-07
No. of Data Rows : 60044

  Measurements for Transient Analysis

tphl                =  1.22684e-09 targ=  3.45076e-09 trig=  2.22392e-09
tplh                =  1.96644e-09 targ=  2.46382e-08 trig=  2.26718e-08
i_vdd_avg           =  -4.02155e-06 from=  5.00000e-09 to=  1.10001e-07
power_avg_uw        =  7.50855e+00


Total analysis time (seconds) = 0.788553

Total elapsed time (seconds) = 0.859 

Total DRAM available = 16384.000 MB.
DRAM currently available =  242.828 MB.
Maximum ngspice program size =   12.562 MB.
Current ngspice program size =   11.891 MB.

