
Note: No compatibility mode selected!


Circuit: XOR2 seed characterization sample 4414032

Doing analysis at TEMP = 0.680760 and TNOM = 27.000000

Using SPARSE 1.3 as Direct Linear Solver

Initial Transient Solution
--------------------------

Node                                   Voltage
----                                   -------
vdd                                    1.97583
in                                           0
b                                      1.97583
abar                                   1.97583
bbar                               9.10968e-10
out                                    1.97583
vb#branch                                    0
vin#branch                         1.99481e-12
vdd#branch                         -1.1931e-11

 Reference value :  2.41697e-08
 Reference value :  6.00434e-08
 Reference value :  9.73834e-08
No. of Data Rows : 60044

  Measurements for Transient Analysis

tphl                =  2.59823e-10 targ=  2.42500e-09 trig=  2.16518e-09
tplh                =  3.05796e-10 targ=  2.28013e-08 trig=  2.24955e-08
i_vdd_avg           =  -6.15530e-06 from=  5.00000e-09 to=  1.10002e-07
power_avg_uw        =  1.21618e+01


Total analysis time (seconds) = 0.790319

Total elapsed time (seconds) = 0.878 

Total DRAM available = 16384.000 MB.
DRAM currently available =  237.422 MB.
Maximum ngspice program size =   12.812 MB.
Current ngspice program size =   11.906 MB.

