
Note: No compatibility mode selected!


Circuit: NAND2 seed characterization sample 4414034

Doing analysis at TEMP = 32.922100 and TNOM = 27.000000

Using SPARSE 1.3 as Direct Linear Solver

Initial Transient Solution
--------------------------

Node                                   Voltage
----                                   -------
vdd                                    1.90435
in                                           0
out                                    1.90435
nmid                                 0.0157746
vin#branch                                   0
vdd#branch                        -1.96165e-12

 Reference value :  4.76956e-08
 Reference value :  1.09782e-07
No. of Data Rows : 60041

  Measurements for Transient Analysis

tphl                =  1.90896e-10 targ=  2.22118e-09 trig=  2.03029e-09
tplh                =  8.90714e-11 targ=  2.21799e-08 trig=  2.20909e-08
i_vdd_avg           =  -2.60918e-06 from=  5.00000e-09 to=  1.10000e-07
power_avg_uw        =  4.96880e+00


Total analysis time (seconds) = 0.466175

Total elapsed time (seconds) = 0.535 

Total DRAM available = 16384.000 MB.
DRAM currently available =  227.359 MB.
Maximum ngspice program size =   12.562 MB.
Current ngspice program size =   11.688 MB.

