
Note: No compatibility mode selected!


Circuit: NOR2 seed characterization sample 4414031

Doing analysis at TEMP = 86.824000 and TNOM = 27.000000

Using SPARSE 1.3 as Direct Linear Solver

Initial Transient Solution
--------------------------

Node                                   Voltage
----                                   -------
vdd                                     1.8744
in                                           0
out                                     1.8744
pmid                                    1.8744
vin#branch                                   0
vdd#branch                        -8.93686e-12

 Reference value :  4.76412e-08
 Reference value :  1.09323e-07
No. of Data Rows : 60044

  Measurements for Transient Analysis

tphl                =  1.69804e-10 targ=  2.27991e-09 trig=  2.11010e-09
tplh                =  8.74812e-10 targ=  2.32051e-08 trig=  2.23303e-08
i_vdd_avg           =  -4.07372e-06 from=  5.00000e-09 to=  1.10001e-07
power_avg_uw        =  7.63578e+00


Total analysis time (seconds) = 0.469384

Total elapsed time (seconds) = 0.537 

Total DRAM available = 16384.000 MB.
DRAM currently available =  221.672 MB.
Maximum ngspice program size =   12.719 MB.
Current ngspice program size =   12.609 MB.

