
Note: No compatibility mode selected!


Circuit: NAND2 seed characterization sample 4414038

Doing analysis at TEMP = 59.078100 and TNOM = 27.000000

Using SPARSE 1.3 as Direct Linear Solver

Initial Transient Solution
--------------------------

Node                                   Voltage
----                                   -------
vdd                                    1.72922
in                                           0
out                                    1.72922
nmid                                 0.0360595
vin#branch                                   0
vdd#branch                        -1.95455e-12

 Reference value :  4.63794e-08
 Reference value :  1.06920e-07
No. of Data Rows : 60044

  Measurements for Transient Analysis

tphl                =  3.01663e-10 targ=  2.37287e-09 trig=  2.07121e-09
tplh                =  1.83030e-10 targ=  2.23967e-08 trig=  2.22136e-08
i_vdd_avg           =  -3.72638e-06 from=  5.00000e-09 to=  1.10002e-07
power_avg_uw        =  6.44373e+00


Total analysis time (seconds) = 0.476302

Total elapsed time (seconds) = 0.547 

Total DRAM available = 16384.000 MB.
DRAM currently available =  234.016 MB.
Maximum ngspice program size =   12.562 MB.
Current ngspice program size =   11.625 MB.

