
Note: No compatibility mode selected!


Circuit: XOR2 seed characterization sample 4414044

Doing analysis at TEMP = 25.479500 and TNOM = 27.000000

Using SPARSE 1.3 as Direct Linear Solver

Initial Transient Solution
--------------------------

Node                                   Voltage
----                                   -------
vdd                                    1.72387
in                                           0
b                                      1.72387
abar                                   1.72387
bbar                               1.80825e-09
out                                    1.72387
vb#branch                                    0
vin#branch                         1.77625e-12
vdd#branch                        -1.04782e-11

 Reference value :  2.62980e-08
 Reference value :  6.10815e-08
 Reference value :  9.79695e-08
No. of Data Rows : 60041

  Measurements for Transient Analysis

tphl                =  2.47276e-10 targ=  2.28654e-09 trig=  2.03926e-09
tplh                =  4.27427e-10 targ=  2.25452e-08 trig=  2.21178e-08
i_vdd_avg           =  -2.90864e-06 from=  5.00000e-09 to=  1.10000e-07
power_avg_uw        =  5.01413e+00


Total analysis time (seconds) = 0.805208

Total elapsed time (seconds) = 0.878 

Total DRAM available = 16384.000 MB.
DRAM currently available =  236.000 MB.
Maximum ngspice program size =   12.578 MB.
Current ngspice program size =   11.969 MB.

