
Note: No compatibility mode selected!


Circuit: INV seed characterization sample 4414045

Doing analysis at TEMP = 18.664600 and TNOM = 27.000000

Using SPARSE 1.3 as Direct Linear Solver

Initial Transient Solution
--------------------------

Node                                   Voltage
----                                   -------
vdd                                    1.68636
in                                           0
out                                    1.68636
vin#branch                                   0
vdd#branch                         -1.7093e-12

 Reference value :  7.31542e-08
No. of Data Rows : 60041

  Measurements for Transient Analysis

tphl                =  2.17784e-10 targ=  2.30908e-09 trig=  2.09129e-09
tplh                =  2.53068e-10 targ=  2.25269e-08 trig=  2.22739e-08
i_vdd_avg           =  -2.46582e-06 from=  5.00000e-09 to=  1.10000e-07
power_avg_uw        =  4.15826e+00


Total analysis time (seconds) = 0.296592

Total elapsed time (seconds) = 0.365 

Total DRAM available = 16384.000 MB.
DRAM currently available =  245.859 MB.
Maximum ngspice program size =   12.562 MB.
Current ngspice program size =   11.656 MB.

