
Note: No compatibility mode selected!


Circuit: XOR2 seed characterization sample 4414036

Doing analysis at TEMP = 15.052200 and TNOM = 27.000000

Using SPARSE 1.3 as Direct Linear Solver

Initial Transient Solution
--------------------------

Node                                   Voltage
----                                   -------
vdd                                    1.65289
in                                           0
b                                      1.65289
abar                                   1.65289
bbar                                1.0062e-09
out                                    1.65289
vb#branch                                    0
vin#branch                         1.69127e-12
vdd#branch                        -1.00279e-11

 Reference value :  2.68467e-08
 Reference value :  6.21528e-08
 Reference value :  9.93628e-08
No. of Data Rows : 60044

  Measurements for Transient Analysis

tphl                =  4.44054e-10 targ=  2.63998e-09 trig=  2.19592e-09
tplh                =  6.30152e-10 targ=  2.32179e-08 trig=  2.25878e-08
i_vdd_avg           =  -6.99811e-06 from=  5.00000e-09 to=  1.10001e-07
power_avg_uw        =  1.15671e+01


Total analysis time (seconds) = 0.799048

Total elapsed time (seconds) = 0.868 

Total DRAM available = 16384.000 MB.
DRAM currently available =  222.703 MB.
Maximum ngspice program size =   12.578 MB.
Current ngspice program size =   11.891 MB.

