
Note: No compatibility mode selected!


Circuit: XOR2 seed characterization sample 4414012

Doing analysis at TEMP = -6.515680 and TNOM = 27.000000

Using SPARSE 1.3 as Direct Linear Solver

Initial Transient Solution
--------------------------

Node                                   Voltage
----                                   -------
vdd                                    1.62909
in                                           0
b                                      1.62909
abar                                   1.62909
bbar                               1.68996e-09
out                                    1.62909
vb#branch                                    0
vin#branch                         1.64065e-12
vdd#branch                         -9.8373e-12

 Reference value :  2.74412e-08
 Reference value :  6.31612e-08
 Reference value :  1.00865e-07
No. of Data Rows : 60044

  Measurements for Transient Analysis

tphl                =  5.56159e-10 targ=  2.62221e-09 trig=  2.06605e-09
tplh                =  6.74173e-10 targ=  2.28723e-08 trig=  2.21981e-08
i_vdd_avg           =  -6.07184e-06 from=  5.00000e-09 to=  1.10001e-07
power_avg_uw        =  9.89158e+00


Total analysis time (seconds) = 0.787136

Total elapsed time (seconds) = 0.856 

Total DRAM available = 16384.000 MB.
DRAM currently available =  230.047 MB.
Maximum ngspice program size =   12.578 MB.
Current ngspice program size =   11.750 MB.

