
Note: No compatibility mode selected!


Circuit: NOR2 seed characterization sample 4414019

Doing analysis at TEMP = 41.978400 and TNOM = 27.000000

Using SPARSE 1.3 as Direct Linear Solver

Initial Transient Solution
--------------------------

Node                                   Voltage
----                                   -------
vdd                                    1.76844
in                                           0
out                                    1.76844
pmid                                   1.76844
vin#branch                                   0
vdd#branch                        -4.04371e-12

 Reference value :  4.55555e-08
 Reference value :  1.04962e-07
No. of Data Rows : 60041

  Measurements for Transient Analysis

tphl                =  1.64321e-10 targ=  2.35757e-09 trig=  2.19325e-09
tplh                =  6.72591e-10 targ=  2.32523e-08 trig=  2.25798e-08
i_vdd_avg           =  -4.57705e-06 from=  5.00000e-09 to=  1.10000e-07
power_avg_uw        =  8.09423e+00


Total analysis time (seconds) = 0.483186

Total elapsed time (seconds) = 0.558 

Total DRAM available = 16384.000 MB.
DRAM currently available =  222.156 MB.
Maximum ngspice program size =   12.562 MB.
Current ngspice program size =   11.688 MB.

