
Note: No compatibility mode selected!


Circuit: INV seed characterization sample 4414037

Doing analysis at TEMP = 34.264600 and TNOM = 27.000000

Using SPARSE 1.3 as Direct Linear Solver

Initial Transient Solution
--------------------------

Node                                   Voltage
----                                   -------
vdd                                    1.63796
in                                           0
out                                    1.63796
vin#branch                                   0
vdd#branch                        -1.72592e-12

 Reference value :  7.31521e-08
No. of Data Rows : 60044

  Measurements for Transient Analysis

tphl                =  3.29555e-10 targ=  2.49734e-09 trig=  2.16779e-09
tplh                =  4.13783e-10 targ=  2.29171e-08 trig=  2.25034e-08
i_vdd_avg           =  -4.69066e-06 from=  5.00000e-09 to=  1.10000e-07
power_avg_uw        =  7.68311e+00


Total analysis time (seconds) = 0.294432

Total elapsed time (seconds) = 0.365 

Total DRAM available = 16384.000 MB.
DRAM currently available =  222.703 MB.
Maximum ngspice program size =   12.562 MB.
Current ngspice program size =   11.906 MB.

