
Note: No compatibility mode selected!


Circuit: NAND2 seed characterization sample 4414018

Doing analysis at TEMP = 99.548400 and TNOM = 27.000000

Using SPARSE 1.3 as Direct Linear Solver

Initial Transient Solution
--------------------------

Node                                   Voltage
----                                   -------
vdd                                    1.82569
in                                           0
out                                    1.82569
nmid                                 0.0468607
vin#branch                                   0
vdd#branch                        -2.54671e-12

 Reference value :  4.66640e-08
 Reference value :  1.07187e-07
No. of Data Rows : 60047

  Measurements for Transient Analysis

tphl                =  1.07822e-09 targ=  3.28674e-09 trig=  2.20852e-09
tplh                =  3.79680e-10 targ=  2.30052e-08 trig=  2.26256e-08
i_vdd_avg           =  -5.26360e-06 from=  5.00000e-09 to=  1.10001e-07
power_avg_uw        =  9.60970e+00


Total analysis time (seconds) = 0.474857

Total elapsed time (seconds) = 0.545 

Total DRAM available = 16384.000 MB.
DRAM currently available =  211.078 MB.
Maximum ngspice program size =   12.562 MB.
Current ngspice program size =   11.625 MB.

