
Note: No compatibility mode selected!


Circuit: XOR2 seed characterization sample 4414028

Doing analysis at TEMP = 44.676600 and TNOM = 27.000000

Using SPARSE 1.3 as Direct Linear Solver

Initial Transient Solution
--------------------------

Node                                   Voltage
----                                   -------
vdd                                    1.96031
in                                           0
b                                      1.96031
abar                                   1.96031
bbar                               6.70637e-09
out                                    1.96031
vb#branch                                    0
vin#branch                         2.02959e-12
vdd#branch                        -1.19331e-11

 Reference value :  2.61760e-08
 Reference value :  6.09485e-08
 Reference value :  9.78565e-08
No. of Data Rows : 60044

  Measurements for Transient Analysis

tphl                =  1.01527e-09 targ=  3.09503e-09 trig=  2.07976e-09
tplh                =  1.42410e-09 targ=  2.36634e-08 trig=  2.22393e-08
i_vdd_avg           =  -5.21401e-06 from=  5.00000e-09 to=  1.10000e-07
power_avg_uw        =  1.02211e+01


Total analysis time (seconds) = 0.805664

Total elapsed time (seconds) = 0.878 

Total DRAM available = 16384.000 MB.
DRAM currently available =  253.594 MB.
Maximum ngspice program size =   12.562 MB.
Current ngspice program size =   11.969 MB.

