
Note: No compatibility mode selected!


Circuit: INV seed characterization sample 4414017

Doing analysis at TEMP = -15.224700 and TNOM = 27.000000

Using SPARSE 1.3 as Direct Linear Solver

Initial Transient Solution
--------------------------

Node                                   Voltage
----                                   -------
vdd                                    1.93966
in                                           0
out                                    1.93966
vin#branch                                   0
vdd#branch                        -1.95001e-12

 Reference value :  7.10488e-08
No. of Data Rows : 60041

  Measurements for Transient Analysis

tphl                =  2.40409e-10 targ=  2.38586e-09 trig=  2.14545e-09
tplh                =  3.49200e-10 targ=  2.27856e-08 trig=  2.24364e-08
i_vdd_avg           =  -3.06634e-06 from=  5.00000e-09 to=  1.10001e-07
power_avg_uw        =  5.94765e+00


Total analysis time (seconds) = 0.302367

Total elapsed time (seconds) = 0.374 

Total DRAM available = 16384.000 MB.
DRAM currently available =  226.891 MB.
Maximum ngspice program size =   12.562 MB.
Current ngspice program size =   11.625 MB.

