
Note: No compatibility mode selected!


Circuit: NOR2 seed characterization sample 4324015

Doing analysis at TEMP = 86.159400 and TNOM = 27.000000

Using SPARSE 1.3 as Direct Linear Solver

Initial Transient Solution
--------------------------

Node                                   Voltage
----                                   -------
vdd                                    1.67361
in                                           0
out                                    1.67361
pmid                                   1.67361
vin#branch                                   0
vdd#branch                        -9.34566e-11

 Reference value :  4.71961e-08
 Reference value :  1.07919e-07
No. of Data Rows : 60047

  Measurements for Transient Analysis

tphl                =  7.24564e-11 targ=  2.09599e-09 trig=  2.02354e-09
tplh                =  4.67824e-10 targ=  2.25384e-08 trig=  2.20706e-08
i_vdd_avg           =  -3.91620e-06 from=  5.00000e-09 to=  1.10001e-07
power_avg_uw        =  6.55418e+00


Total analysis time (seconds) = 0.475399

Total elapsed time (seconds) = 0.544 

Total DRAM available = 16384.000 MB.
DRAM currently available =  193.734 MB.
Maximum ngspice program size =   12.562 MB.
Current ngspice program size =   11.734 MB.

