
Note: No compatibility mode selected!


Circuit: XOR2 seed characterization sample 4324024

Doing analysis at TEMP = 99.493800 and TNOM = 27.000000

Using SPARSE 1.3 as Direct Linear Solver

Initial Transient Solution
--------------------------

Node                                   Voltage
----                                   -------
vdd                                    1.67331
in                                           0
b                                      1.67331
abar                                   1.67331
bbar                               1.66793e-08
out                                    1.67331
vb#branch                                    0
vin#branch                         2.50129e-11
vdd#branch                        -5.33075e-11

 Reference value :  2.64081e-08
 Reference value :  6.11475e-08
 Reference value :  9.81935e-08
No. of Data Rows : 60041

  Measurements for Transient Analysis

tphl                =  5.77572e-10 targ=  2.58684e-09 trig=  2.00927e-09
tplh                =  5.66467e-10 targ=  2.25943e-08 trig=  2.20278e-08
i_vdd_avg           =  -2.93986e-06 from=  5.00000e-09 to=  1.10000e-07
power_avg_uw        =  4.91930e+00


Total analysis time (seconds) = 0.804015

Total elapsed time (seconds) = 0.875 

Total DRAM available = 16384.000 MB.
DRAM currently available =  213.281 MB.
Maximum ngspice program size =   12.703 MB.
Current ngspice program size =   12.703 MB.

