
Note: No compatibility mode selected!


Circuit: NAND2 seed characterization sample 4324002

Doing analysis at TEMP = 85.180900 and TNOM = 27.000000

Using SPARSE 1.3 as Direct Linear Solver

Initial Transient Solution
--------------------------

Node                                   Voltage
----                                   -------
vdd                                     1.9255
in                                           0
out                                     1.9255
nmid                                  0.054634
vin#branch                                   0
vdd#branch                        -4.78037e-12

 Reference value :  4.11443e-08
 Reference value :  9.87967e-08
No. of Data Rows : 60044

  Measurements for Transient Analysis

tphl                =  6.36906e-10 targ=  2.67674e-09 trig=  2.03983e-09
tplh                =  3.15604e-10 targ=  2.24351e-08 trig=  2.21195e-08
i_vdd_avg           =  -5.44759e-06 from=  5.00000e-09 to=  1.10000e-07
power_avg_uw        =  1.04893e+01


Total analysis time (seconds) = 0.503129

Total elapsed time (seconds) = 0.580 

Total DRAM available = 16384.000 MB.
DRAM currently available =  187.812 MB.
Maximum ngspice program size =   12.562 MB.
Current ngspice program size =   11.906 MB.

