
Note: No compatibility mode selected!


Circuit: NOR2 seed characterization sample 4324023

Doing analysis at TEMP = 70.123500 and TNOM = 27.000000

Using SPARSE 1.3 as Direct Linear Solver

Initial Transient Solution
--------------------------

Node                                   Voltage
----                                   -------
vdd                                    1.82758
in                                           0
out                                    1.82758
pmid                                   1.82758
vin#branch                                   0
vdd#branch                        -3.49906e-11

 Reference value :  4.65648e-08
 Reference value :  1.06973e-07
No. of Data Rows : 60044

  Measurements for Transient Analysis

tphl                =  1.37417e-10 targ=  2.35631e-09 trig=  2.21889e-09
tplh                =  3.64925e-10 targ=  2.30216e-08 trig=  2.26567e-08
i_vdd_avg           =  -3.62671e-06 from=  5.00000e-09 to=  1.10001e-07
power_avg_uw        =  6.62810e+00


Total analysis time (seconds) = 0.478597

Total elapsed time (seconds) = 0.548 

Total DRAM available = 16384.000 MB.
DRAM currently available =  204.312 MB.
Maximum ngspice program size =   12.562 MB.
Current ngspice program size =   11.781 MB.

