
Note: No compatibility mode selected!


Circuit: NOR2 seed characterization sample 4324031

Doing analysis at TEMP = 40.695700 and TNOM = 27.000000

Using SPARSE 1.3 as Direct Linear Solver

Initial Transient Solution
--------------------------

Node                                   Voltage
----                                   -------
vdd                                    1.78917
in                                           0
out                                    1.78917
pmid                                   1.78917
vin#branch                                   0
vdd#branch                        -9.60896e-12

 Reference value :  4.65057e-08
 Reference value :  1.06380e-07
No. of Data Rows : 60041

  Measurements for Transient Analysis

tphl                =  6.25153e-11 targ=  2.15384e-09 trig=  2.09133e-09
tplh                =  1.50722e-10 targ=  2.24247e-08 trig=  2.22740e-08
i_vdd_avg           =  -2.16185e-06 from=  5.00000e-09 to=  1.10000e-07
power_avg_uw        =  3.86793e+00


Total analysis time (seconds) = 0.480276

Total elapsed time (seconds) = 0.550 

Total DRAM available = 16384.000 MB.
DRAM currently available =  188.109 MB.
Maximum ngspice program size =   12.562 MB.
Current ngspice program size =   11.656 MB.

