
Note: No compatibility mode selected!


Circuit: NAND2 seed characterization sample 4324046

Doing analysis at TEMP = 43.541000 and TNOM = 27.000000

Using SPARSE 1.3 as Direct Linear Solver

Initial Transient Solution
--------------------------

Node                                   Voltage
----                                   -------
vdd                                    1.90684
in                                           0
out                                    1.90684
nmid                                   0.04933
vin#branch                                   0
vdd#branch                         -2.6812e-12

 Reference value :  4.64673e-08
 Reference value :  1.07868e-07
No. of Data Rows : 60044

  Measurements for Transient Analysis

tphl                =  2.41609e-10 targ=  2.45376e-09 trig=  2.21215e-09
tplh                =  1.54546e-10 targ=  2.27910e-08 trig=  2.26365e-08
i_vdd_avg           =  -4.06402e-06 from=  5.00000e-09 to=  1.10002e-07
power_avg_uw        =  7.74944e+00


Total analysis time (seconds) = 0.470094

Total elapsed time (seconds) = 0.541 

Total DRAM available = 16384.000 MB.
DRAM currently available =  219.078 MB.
Maximum ngspice program size =   12.562 MB.
Current ngspice program size =   11.656 MB.

