
Note: No compatibility mode selected!


Circuit: XOR2 seed characterization sample 4324008

Doing analysis at TEMP = 92.439200 and TNOM = 27.000000

Using SPARSE 1.3 as Direct Linear Solver

Initial Transient Solution
--------------------------

Node                                   Voltage
----                                   -------
vdd                                    1.65587
in                                           0
b                                      1.65587
abar                                   1.65587
bbar                               5.54114e-09
out                                    1.65587
vb#branch                                    0
vin#branch                         1.04159e-10
vdd#branch                        -1.93004e-10

 Reference value :  2.65099e-08
 Reference value :  6.13735e-08
 Reference value :  9.85655e-08
No. of Data Rows : 60044

  Measurements for Transient Analysis

tphl                =  2.18925e-10 targ=  2.41215e-09 trig=  2.19323e-09
tplh                =  2.50411e-10 targ=  2.28301e-08 trig=  2.25797e-08
i_vdd_avg           =  -3.10927e-06 from=  5.00000e-09 to=  1.10002e-07
power_avg_uw        =  5.14855e+00


Total analysis time (seconds) = 0.800047

Total elapsed time (seconds) = 0.871 

Total DRAM available = 16384.000 MB.
DRAM currently available =  192.406 MB.
Maximum ngspice program size =   12.578 MB.
Current ngspice program size =   11.719 MB.

