
Note: No compatibility mode selected!


Circuit: NOR2 seed characterization sample 4324035

Doing analysis at TEMP = -1.553610 and TNOM = 27.000000

Using SPARSE 1.3 as Direct Linear Solver

Initial Transient Solution
--------------------------

Node                                   Voltage
----                                   -------
vdd                                    1.77862
in                                           0
out                                    1.77862
pmid                                   1.77862
vin#branch                                   0
vdd#branch                        -3.71798e-12

 Reference value :  4.67557e-08
 Reference value :  1.07332e-07
No. of Data Rows : 60041

  Measurements for Transient Analysis

tphl                =  1.40018e-10 targ=  2.38336e-09 trig=  2.24334e-09
tplh                =  4.32583e-10 targ=  2.31626e-08 trig=  2.27300e-08
i_vdd_avg           =  -3.68642e-06 from=  5.00000e-09 to=  1.10000e-07
power_avg_uw        =  6.55674e+00


Total analysis time (seconds) = 0.4761

Total elapsed time (seconds) = 0.545 

Total DRAM available = 16384.000 MB.
DRAM currently available =  206.031 MB.
Maximum ngspice program size =   12.594 MB.
Current ngspice program size =   11.875 MB.

