
Note: No compatibility mode selected!


Circuit: NOR2 seed characterization sample 4324007

Doing analysis at TEMP = 7.730100 and TNOM = 27.000000

Using SPARSE 1.3 as Direct Linear Solver

Initial Transient Solution
--------------------------

Node                                   Voltage
----                                   -------
vdd                                    1.65791
in                                           0
out                                    1.65791
pmid                                   1.65791
vin#branch                                   0
vdd#branch                        -3.72298e-12

 Reference value :  4.51441e-08
 Reference value :  1.05531e-07
No. of Data Rows : 60047

  Measurements for Transient Analysis

tphl                =  7.02072e-11 targ=  2.25176e-09 trig=  2.18155e-09
tplh                =  2.41426e-10 targ=  2.27861e-08 trig=  2.25446e-08
i_vdd_avg           =  -1.35939e-06 from=  5.00000e-09 to=  1.10001e-07
power_avg_uw        =  2.25374e+00


Total analysis time (seconds) = 0.479766

Total elapsed time (seconds) = 0.554 

Total DRAM available = 16384.000 MB.
DRAM currently available =  192.406 MB.
Maximum ngspice program size =   12.562 MB.
Current ngspice program size =   11.766 MB.

