
Note: No compatibility mode selected!


Circuit: NAND2 seed characterization sample 4324030

Doing analysis at TEMP = 92.869400 and TNOM = 27.000000

Using SPARSE 1.3 as Direct Linear Solver

Initial Transient Solution
--------------------------

Node                                   Voltage
----                                   -------
vdd                                    1.96014
in                                           0
out                                    1.96014
nmid                                 0.0561928
vin#branch                                   0
vdd#branch                        -9.17442e-12

 Reference value :  4.60131e-08
 Reference value :  1.06853e-07
No. of Data Rows : 60044

  Measurements for Transient Analysis

tphl                =  1.67304e-10 targ=  2.31437e-09 trig=  2.14707e-09
tplh                =  9.98696e-11 targ=  2.25411e-08 trig=  2.24412e-08
i_vdd_avg           =  -1.28357e-06 from=  5.00000e-09 to=  1.10001e-07
power_avg_uw        =  2.51598e+00


Total analysis time (seconds) = 0.473062

Total elapsed time (seconds) = 0.546 

Total DRAM available = 16384.000 MB.
DRAM currently available =  182.812 MB.
Maximum ngspice program size =   12.562 MB.
Current ngspice program size =   11.594 MB.

