
Note: No compatibility mode selected!


Circuit: XOR2 seed characterization sample 4324028

Doing analysis at TEMP = 53.655100 and TNOM = 27.000000

Using SPARSE 1.3 as Direct Linear Solver

Initial Transient Solution
--------------------------

Node                                   Voltage
----                                   -------
vdd                                    1.69632
in                                           0
b                                      1.69632
abar                                   1.69632
bbar                               3.07645e-09
out                                    1.69632
vb#branch                                    0
vin#branch                         4.59343e-12
vdd#branch                        -1.53031e-11

 Reference value :  2.59966e-08
 Reference value :  6.05118e-08
 Reference value :  9.68898e-08
No. of Data Rows : 60041

  Measurements for Transient Analysis

tphl                =  2.53458e-10 targ=  2.32886e-09 trig=  2.07541e-09
tplh                =  3.83962e-10 targ=  2.26102e-08 trig=  2.22262e-08
i_vdd_avg           =  -2.05753e-06 from=  5.00000e-09 to=  1.10001e-07
power_avg_uw        =  3.49023e+00


Total analysis time (seconds) = 0.81436

Total elapsed time (seconds) = 0.887 

Total DRAM available = 16384.000 MB.
DRAM currently available =  185.484 MB.
Maximum ngspice program size =   12.578 MB.
Current ngspice program size =   11.719 MB.

