
Note: No compatibility mode selected!


Circuit: NOR2 seed characterization sample 4324043

Doing analysis at TEMP = 37.781000 and TNOM = 27.000000

Using SPARSE 1.3 as Direct Linear Solver

Initial Transient Solution
--------------------------

Node                                   Voltage
----                                   -------
vdd                                    1.88924
in                                           0
out                                    1.88924
pmid                                   1.88924
vin#branch                                   0
vdd#branch                        -4.54851e-12

 Reference value :  4.61220e-08
 Reference value :  1.06247e-07
No. of Data Rows : 60041

  Measurements for Transient Analysis

tphl                =  1.26287e-10 targ=  2.20978e-09 trig=  2.08349e-09
tplh                =  4.28670e-10 targ=  2.26791e-08 trig=  2.22505e-08
i_vdd_avg           =  -1.38883e-06 from=  5.00000e-09 to=  1.10001e-07
power_avg_uw        =  2.62383e+00


Total analysis time (seconds) = 0.481738

Total elapsed time (seconds) = 0.551 

Total DRAM available = 16384.000 MB.
DRAM currently available =  230.594 MB.
Maximum ngspice program size =   12.562 MB.
Current ngspice program size =   11.625 MB.

