
Note: No compatibility mode selected!


Circuit: INV seed characterization sample 4324005

Doing analysis at TEMP = 36.040700 and TNOM = 27.000000

Using SPARSE 1.3 as Direct Linear Solver

Initial Transient Solution
--------------------------

Node                                   Voltage
----                                   -------
vdd                                      1.686
in                                           0
out                                      1.686
vin#branch                                   0
vdd#branch                        -3.42789e-12

 Reference value :  7.41079e-08
No. of Data Rows : 60044

  Measurements for Transient Analysis

tphl                =  1.60915e-10 targ=  2.33113e-09 trig=  2.17021e-09
tplh                =  2.28509e-10 targ=  2.27392e-08 trig=  2.25106e-08
i_vdd_avg           =  -2.69629e-06 from=  5.00000e-09 to=  1.10002e-07
power_avg_uw        =  4.54595e+00


Total analysis time (seconds) = 0.291951

Total elapsed time (seconds) = 0.361 

Total DRAM available = 16384.000 MB.
DRAM currently available =  179.953 MB.
Maximum ngspice program size =   12.562 MB.
Current ngspice program size =   12.000 MB.

