
Note: No compatibility mode selected!


Circuit: NAND2 seed characterization sample 4324014

Doing analysis at TEMP = 23.239800 and TNOM = 27.000000

Using SPARSE 1.3 as Direct Linear Solver

Initial Transient Solution
--------------------------

Node                                   Voltage
----                                   -------
vdd                                    1.66091
in                                           0
out                                    1.66091
nmid                                 0.0358991
vin#branch                                   0
vdd#branch                        -1.86989e-12

 Reference value :  4.82451e-08
 Reference value :  1.10233e-07
No. of Data Rows : 60044

  Measurements for Transient Analysis

tphl                =  2.46347e-10 targ=  2.34242e-09 trig=  2.09607e-09
tplh                =  1.13213e-10 targ=  2.24014e-08 trig=  2.22882e-08
i_vdd_avg           =  -4.26340e-06 from=  5.00000e-09 to=  1.10001e-07
power_avg_uw        =  7.08113e+00


Total analysis time (seconds) = 0.464554

Total elapsed time (seconds) = 0.533 

Total DRAM available = 16384.000 MB.
DRAM currently available =  193.734 MB.
Maximum ngspice program size =   12.562 MB.
Current ngspice program size =   11.625 MB.

