
Note: No compatibility mode selected!


Circuit: XOR2 seed characterization sample 4324036

Doing analysis at TEMP = 45.258900 and TNOM = 27.000000

Using SPARSE 1.3 as Direct Linear Solver

Initial Transient Solution
--------------------------

Node                                   Voltage
----                                   -------
vdd                                    1.86208
in                                           0
b                                      1.86208
abar                                   1.86208
bbar                               1.75063e-09
out                                    1.86208
vb#branch                                    0
vin#branch                         5.29545e-12
vdd#branch                        -1.72982e-11

 Reference value :  2.68859e-08
 Reference value :  6.20055e-08
 Reference value :  9.92675e-08
No. of Data Rows : 60044

  Measurements for Transient Analysis

tphl                =  1.54752e-10 targ=  2.20999e-09 trig=  2.05523e-09
tplh                =  1.74861e-10 targ=  2.23406e-08 trig=  2.21657e-08
i_vdd_avg           =  -2.55521e-06 from=  5.00000e-09 to=  1.10002e-07
power_avg_uw        =  4.75800e+00


Total analysis time (seconds) = 0.797817

Total elapsed time (seconds) = 0.868 

Total DRAM available = 16384.000 MB.
DRAM currently available =  256.844 MB.
Maximum ngspice program size =   12.578 MB.
Current ngspice program size =   11.625 MB.

