
Note: No compatibility mode selected!


Circuit: XOR2 seed characterization sample 4120022

Doing analysis at TEMP = 80.400100 and TNOM = 27.000000

Using SPARSE 1.3 as Direct Linear Solver

Initial Transient Solution
--------------------------

Node                                   Voltage
----                                   -------
vdd                                    1.77296
in                                           0
b                                      1.77296
abar                                   1.77296
bbar                               2.85217e-09
out                                    1.77296
vb#branch                                    0
vin#branch                         4.90465e-11
vdd#branch                         -9.4969e-11

 Reference value :  2.53956e-08
 Reference value :  5.96703e-08
 Reference value :  9.54763e-08
No. of Data Rows : 60047

  Measurements for Transient Analysis

tphl                =  2.86751e-10 targ=  2.50741e-09 trig=  2.22065e-09
tplh                =  3.56257e-10 targ=  2.30182e-08 trig=  2.26620e-08
i_vdd_avg           =  -4.92640e-06 from=  5.00000e-09 to=  1.10002e-07
power_avg_uw        =  8.73432e+00


Total analysis time (seconds) = 0.825845

Total elapsed time (seconds) = 0.901 

Total DRAM available = 16384.000 MB.
DRAM currently available =  173.516 MB.
Maximum ngspice program size =   12.578 MB.
Current ngspice program size =   11.875 MB.

