
Note: No compatibility mode selected!


Circuit: INV seed characterization sample 4120013

Doing analysis at TEMP = 70.847400 and TNOM = 27.000000

Using SPARSE 1.3 as Direct Linear Solver

Initial Transient Solution
--------------------------

Node                                   Voltage
----                                   -------
vdd                                    1.67887
in                                           0
out                                    1.67887
vin#branch                                   0
vdd#branch                        -2.12377e-11

 Reference value :  6.39531e-08
No. of Data Rows : 60047

  Measurements for Transient Analysis

tphl                =  1.92919e-10 targ=  2.28546e-09 trig=  2.09254e-09
tplh                =  2.21511e-10 targ=  2.24991e-08 trig=  2.22776e-08
i_vdd_avg           =  -5.11690e-06 from=  5.00000e-09 to=  1.10001e-07
power_avg_uw        =  8.59061e+00


Total analysis time (seconds) = 0.328417

Total elapsed time (seconds) = 0.404 

Total DRAM available = 16384.000 MB.
DRAM currently available =  149.625 MB.
Maximum ngspice program size =   12.562 MB.
Current ngspice program size =   11.719 MB.

