
Note: No compatibility mode selected!


Circuit: NAND2 seed characterization sample 4120008

Doing analysis at TEMP = 61.906700 and TNOM = 27.000000

Using SPARSE 1.3 as Direct Linear Solver

Initial Transient Solution
--------------------------

Node                                   Voltage
----                                   -------
vdd                                    1.65221
in                                           0
out                                    1.65221
nmid                                 0.0474655
vin#branch                                   0
vdd#branch                        -3.17527e-12

 Reference value :  4.74922e-08
 Reference value :  1.11519e-07
No. of Data Rows : 60047

  Measurements for Transient Analysis

tphl                =  4.92313e-10 targ=  2.72089e-09 trig=  2.22858e-09
tplh                =  2.72166e-10 targ=  2.29579e-08 trig=  2.26857e-08
i_vdd_avg           =  -4.82790e-06 from=  5.00000e-09 to=  1.10001e-07
power_avg_uw        =  7.97671e+00


Total analysis time (seconds) = 0.455017

Total elapsed time (seconds) = 0.525 

Total DRAM available = 16384.000 MB.
DRAM currently available =  178.375 MB.
Maximum ngspice program size =   12.562 MB.
Current ngspice program size =   11.938 MB.

