
Note: No compatibility mode selected!


Circuit: XOR2 seed characterization sample 4120011

Doing analysis at TEMP = 57.659300 and TNOM = 27.000000

Using SPARSE 1.3 as Direct Linear Solver

Initial Transient Solution
--------------------------

Node                                   Voltage
----                                   -------
vdd                                    1.63232
in                                           0
b                                      1.63232
abar                                   1.63232
bbar                               2.51164e-09
out                                    1.63232
vb#branch                                    0
vin#branch                         7.04956e-12
vdd#branch                        -1.94122e-11

 Reference value :  2.34966e-08
 Reference value :  5.52788e-08
 Reference value :  8.69708e-08
No. of Data Rows : 60044

  Measurements for Transient Analysis

tphl                =  2.21643e-10 targ=  2.23954e-09 trig=  2.01789e-09
tplh                =  2.26436e-10 targ=  2.22801e-08 trig=  2.20537e-08
i_vdd_avg           =  -2.47430e-06 from=  5.00000e-09 to=  1.10001e-07
power_avg_uw        =  4.03885e+00


Total analysis time (seconds) = 0.890897

Total elapsed time (seconds) = 0.969 

Total DRAM available = 16384.000 MB.
DRAM currently available =  163.484 MB.
Maximum ngspice program size =   12.578 MB.
Current ngspice program size =   11.750 MB.

