
Note: No compatibility mode selected!


Circuit: NAND2 seed characterization sample 4120030

Doing analysis at TEMP = 39.916800 and TNOM = 27.000000

Using SPARSE 1.3 as Direct Linear Solver

Initial Transient Solution
--------------------------

Node                                   Voltage
----                                   -------
vdd                                    1.93245
in                                           0
out                                    1.93245
nmid                                   0.04567
vin#branch                                   0
vdd#branch                          -2.308e-12

 Reference value :  4.24738e-08
 Reference value :  9.97558e-08
No. of Data Rows : 60041

  Measurements for Transient Analysis

tphl                =  3.28724e-10 targ=  2.52410e-09 trig=  2.19538e-09
tplh                =  1.57127e-10 targ=  2.27433e-08 trig=  2.25861e-08
i_vdd_avg           =  -4.21165e-06 from=  5.00000e-09 to=  1.10001e-07
power_avg_uw        =  8.13880e+00


Total analysis time (seconds) = 0.507949

Total elapsed time (seconds) = 0.586 

Total DRAM available = 16384.000 MB.
DRAM currently available =  150.500 MB.
Maximum ngspice program size =   12.562 MB.
Current ngspice program size =   12.234 MB.

