
Note: No compatibility mode selected!


Circuit: NAND2 seed characterization sample 4120043

Doing analysis at TEMP = 29.125100 and TNOM = 27.000000

Using SPARSE 1.3 as Direct Linear Solver

Initial Transient Solution
--------------------------

Node                                   Voltage
----                                   -------
vdd                                    1.88767
in                                           0
out                                    1.88767
nmid                                  0.023536
vin#branch                                   0
vdd#branch                        -1.97247e-12

 Reference value :  4.45298e-08
 Reference value :  1.05773e-07
No. of Data Rows : 60041

  Measurements for Transient Analysis

tphl                =  1.38895e-09 targ=  3.48633e-09 trig=  2.09738e-09
tplh                =  5.97085e-10 targ=  2.28892e-08 trig=  2.22921e-08
i_vdd_avg           =  -4.64971e-06 from=  5.00000e-09 to=  1.10001e-07
power_avg_uw        =  8.77713e+00


Total analysis time (seconds) = 0.469152

Total elapsed time (seconds) = 0.544 

Total DRAM available = 16384.000 MB.
DRAM currently available =  171.984 MB.
Maximum ngspice program size =   12.562 MB.
Current ngspice program size =   11.828 MB.

