
Note: No compatibility mode selected!


Circuit: XOR2 seed characterization sample 4120026

Doing analysis at TEMP = 3.578470 and TNOM = 27.000000

Using SPARSE 1.3 as Direct Linear Solver

Initial Transient Solution
--------------------------

Node                                   Voltage
----                                   -------
vdd                                    1.83793
in                                           0
b                                      1.83793
abar                                   1.83793
bbar                               3.30932e-09
out                                    1.83793
vb#branch                                    0
vin#branch                         1.88835e-12
vdd#branch                        -1.11574e-11

 Reference value :  2.32115e-08
 Reference value :  5.76423e-08
 Reference value :  9.22143e-08
No. of Data Rows : 60047

  Measurements for Transient Analysis

tphl                =  3.73740e-10 targ=  2.56737e-09 trig=  2.19363e-09
tplh                =  5.10998e-10 targ=  2.30919e-08 trig=  2.25809e-08
i_vdd_avg           =  -2.74868e-06 from=  5.00000e-09 to=  1.10002e-07
power_avg_uw        =  5.05188e+00


Total analysis time (seconds) = 0.834756

Total elapsed time (seconds) = 0.922 

Total DRAM available = 16384.000 MB.
DRAM currently available =  159.094 MB.
Maximum ngspice program size =   12.766 MB.
Current ngspice program size =   12.766 MB.

