
Note: No compatibility mode selected!


Circuit: NAND2 seed characterization sample 4120023

Doing analysis at TEMP = 43.515100 and TNOM = 27.000000

Using SPARSE 1.3 as Direct Linear Solver

Initial Transient Solution
--------------------------

Node                                   Voltage
----                                   -------
vdd                                    1.70075
in                                           0
out                                    1.70075
nmid                                  0.039346
vin#branch                                   0
vdd#branch                        -1.96184e-12

 Reference value :  4.45376e-08
 Reference value :  1.04772e-07
No. of Data Rows : 60041

  Measurements for Transient Analysis

tphl                =  9.24460e-11 targ=  2.12675e-09 trig=  2.03430e-09
tplh                =  4.70174e-11 targ=  2.21499e-08 trig=  2.21029e-08
i_vdd_avg           =  -5.03455e-07 from=  5.00000e-09 to=  1.10000e-07
power_avg_uw        =  8.56250e-01


Total analysis time (seconds) = 0.480343

Total elapsed time (seconds) = 0.555 

Total DRAM available = 16384.000 MB.
DRAM currently available =  161.391 MB.
Maximum ngspice program size =   12.562 MB.
Current ngspice program size =   11.938 MB.

