
Note: No compatibility mode selected!


Circuit: INV seed characterization sample 4120047

Doing analysis at TEMP = 67.536500 and TNOM = 27.000000

Using SPARSE 1.3 as Direct Linear Solver

Initial Transient Solution
--------------------------

Node                                   Voltage
----                                   -------
vdd                                    1.77179
in                                           0
out                                    1.77179
vin#branch                                   0
vdd#branch                        -7.21603e-12

 Reference value :  7.15131e-08
No. of Data Rows : 60047

  Measurements for Transient Analysis

tphl                =  2.80358e-10 targ=  2.35389e-09 trig=  2.07354e-09
tplh                =  3.08478e-10 targ=  2.25291e-08 trig=  2.22206e-08
i_vdd_avg           =  -3.66808e-06 from=  5.00000e-09 to=  1.10001e-07
power_avg_uw        =  6.49906e+00


Total analysis time (seconds) = 0.297762

Total elapsed time (seconds) = 0.371 

Total DRAM available = 16384.000 MB.
DRAM currently available =  190.391 MB.
Maximum ngspice program size =   12.969 MB.
Current ngspice program size =   12.969 MB.

