
Note: No compatibility mode selected!


Circuit: INV seed characterization sample 4120035

Doing analysis at TEMP = 45.567200 and TNOM = 27.000000

Using SPARSE 1.3 as Direct Linear Solver

Initial Transient Solution
--------------------------

Node                                   Voltage
----                                   -------
vdd                                    1.62833
in                                           0
out                                    1.62833
vin#branch                                   0
vdd#branch                        -2.39703e-12

 Reference value :  6.38232e-08
No. of Data Rows : 60047

  Measurements for Transient Analysis

tphl                =  1.42865e-10 targ=  2.19342e-09 trig=  2.05055e-09
tplh                =  2.40291e-10 targ=  2.23919e-08 trig=  2.21517e-08
i_vdd_avg           =  -1.10567e-06 from=  5.00000e-09 to=  1.10001e-07
power_avg_uw        =  1.80039e+00


Total analysis time (seconds) = 0.319712

Total elapsed time (seconds) = 0.397 

Total DRAM available = 16384.000 MB.
DRAM currently available =  151.719 MB.
Maximum ngspice program size =   12.562 MB.
Current ngspice program size =   11.625 MB.

