
Note: No compatibility mode selected!


Circuit: NOR2 seed characterization sample 4120037

Doing analysis at TEMP = 55.168700 and TNOM = 27.000000

Using SPARSE 1.3 as Direct Linear Solver

Initial Transient Solution
--------------------------

Node                                   Voltage
----                                   -------
vdd                                    1.78578
in                                           0
out                                    1.78578
pmid                                   1.78578
vin#branch                                   0
vdd#branch                        -7.07499e-12

 Reference value :  4.11811e-08
 Reference value :  1.02345e-07
No. of Data Rows : 60044

  Measurements for Transient Analysis

tphl                =  7.67963e-11 targ=  2.16983e-09 trig=  2.09303e-09
tplh                =  2.89594e-10 targ=  2.25687e-08 trig=  2.22791e-08
i_vdd_avg           =  -8.19005e-07 from=  5.00000e-09 to=  1.10001e-07
power_avg_uw        =  1.46256e+00


Total analysis time (seconds) = 0.479804

Total elapsed time (seconds) = 0.569 

Total DRAM available = 16384.000 MB.
DRAM currently available =  171.094 MB.
Maximum ngspice program size =   12.859 MB.
Current ngspice program size =   12.234 MB.

