
Note: No compatibility mode selected!


Circuit: NOR2 seed characterization sample 4120002

Doing analysis at TEMP = 30.194200 and TNOM = 27.000000

Using SPARSE 1.3 as Direct Linear Solver

Initial Transient Solution
--------------------------

Node                                   Voltage
----                                   -------
vdd                                    1.84535
in                                           0
out                                    1.84535
pmid                                   1.84535
vin#branch                                   0
vdd#branch                        -6.68988e-12

 Reference value :  4.64080e-08
 Reference value :  1.06975e-07
No. of Data Rows : 60041

  Measurements for Transient Analysis

tphl                =  1.16624e-10 targ=  2.33410e-09 trig=  2.21748e-09
tplh                =  3.52144e-10 targ=  2.30046e-08 trig=  2.26524e-08
i_vdd_avg           =  -4.12630e-06 from=  5.00000e-09 to=  1.10001e-07
power_avg_uw        =  7.61447e+00


Total analysis time (seconds) = 0.477286

Total elapsed time (seconds) = 0.547 

Total DRAM available = 16384.000 MB.
DRAM currently available =  155.922 MB.
Maximum ngspice program size =   12.562 MB.
Current ngspice program size =   11.766 MB.

