
Note: No compatibility mode selected!


Circuit: NOR2 seed characterization sample 4120005

Doing analysis at TEMP = 18.609400 and TNOM = 27.000000

Using SPARSE 1.3 as Direct Linear Solver

Initial Transient Solution
--------------------------

Node                                   Voltage
----                                   -------
vdd                                    1.71951
in                                           0
out                                    1.71951
pmid                                   1.71951
vin#branch                                   0
vdd#branch                        -3.93638e-12

 Reference value :  4.76016e-08
 Reference value :  1.11642e-07
No. of Data Rows : 60041

  Measurements for Transient Analysis

tphl                =  1.01375e-10 targ=  2.15067e-09 trig=  2.04930e-09
tplh                =  5.56793e-10 targ=  2.27047e-08 trig=  2.21479e-08
i_vdd_avg           =  -3.33071e-06 from=  5.00000e-09 to=  1.10000e-07
power_avg_uw        =  5.72719e+00


Total analysis time (seconds) = 0.454788

Total elapsed time (seconds) = 0.524 

Total DRAM available = 16384.000 MB.
DRAM currently available =  178.375 MB.
Maximum ngspice program size =   12.562 MB.
Current ngspice program size =   11.656 MB.

