
Note: No compatibility mode selected!


Circuit: XOR2 seed characterization sample 4120028

Doing analysis at TEMP = -0.598105 and TNOM = 27.000000

Using SPARSE 1.3 as Direct Linear Solver

Initial Transient Solution
--------------------------

Node                                   Voltage
----                                   -------
vdd                                    1.64087
in                                           0
b                                      1.64087
abar                                   1.64087
bbar                               1.20413e-09
out                                    1.64087
vb#branch                                    0
vin#branch                         1.72592e-12
vdd#branch                        -1.00382e-11

 Reference value :  2.47567e-08
 Reference value :  5.93018e-08
 Reference value :  9.40198e-08
No. of Data Rows : 60041

  Measurements for Transient Analysis

tphl                =  2.34215e-10 targ=  2.40464e-09 trig=  2.17042e-09
tplh                =  2.85782e-10 targ=  2.27971e-08 trig=  2.25113e-08
i_vdd_avg           =  -2.70890e-06 from=  5.00000e-09 to=  1.10001e-07
power_avg_uw        =  4.44495e+00


Total analysis time (seconds) = 0.831839

Total elapsed time (seconds) = 0.910 

Total DRAM available = 16384.000 MB.
DRAM currently available =  150.859 MB.
Maximum ngspice program size =   12.562 MB.
Current ngspice program size =   12.203 MB.

