
Note: No compatibility mode selected!


Circuit: NOR2 seed characterization sample 4120014

Doing analysis at TEMP = 81.526200 and TNOM = 27.000000

Using SPARSE 1.3 as Direct Linear Solver

Initial Transient Solution
--------------------------

Node                                   Voltage
----                                   -------
vdd                                    1.63001
in                                           0
out                                    1.63001
pmid                                   1.63001
vin#branch                                   0
vdd#branch                        -1.40791e-11

 Reference value :  3.96254e-08
 Reference value :  9.43782e-08
No. of Data Rows : 60047

  Measurements for Transient Analysis

tphl                =  8.97729e-11 targ=  2.11536e-09 trig=  2.02559e-09
tplh                =  4.96794e-10 targ=  2.25736e-08 trig=  2.20768e-08
i_vdd_avg           =  -8.70795e-07 from=  5.00000e-09 to=  1.10001e-07
power_avg_uw        =  1.41940e+00


Total analysis time (seconds) = 0.521444

Total elapsed time (seconds) = 0.599 

Total DRAM available = 16384.000 MB.
DRAM currently available =  154.969 MB.
Maximum ngspice program size =   12.562 MB.
Current ngspice program size =   11.594 MB.

