
Note: No compatibility mode selected!


Circuit: XOR2 seed characterization sample 4120021

Doing analysis at TEMP = 87.381200 and TNOM = 27.000000

Using SPARSE 1.3 as Direct Linear Solver

Initial Transient Solution
--------------------------

Node                                   Voltage
----                                   -------
vdd                                    1.74374
in                                           0
b                                      1.74374
abar                                   1.74374
bbar                               5.48554e-09
out                                    1.74374
vb#branch                                    0
vin#branch                         2.99393e-11
vdd#branch                        -6.02568e-11

 Reference value :  2.50161e-08
 Reference value :  5.93395e-08
 Reference value :  9.52275e-08
No. of Data Rows : 60041

  Measurements for Transient Analysis

tphl                =  3.38923e-10 targ=  2.44819e-09 trig=  2.10927e-09
tplh                =  4.66344e-10 targ=  2.27941e-08 trig=  2.23278e-08
i_vdd_avg           =  -3.23337e-06 from=  5.00000e-09 to=  1.10000e-07
power_avg_uw        =  5.63815e+00


Total analysis time (seconds) = 0.825236

Total elapsed time (seconds) = 0.902 

Total DRAM available = 16384.000 MB.
DRAM currently available =  181.141 MB.
Maximum ngspice program size =   14.203 MB.
Current ngspice program size =   14.203 MB.

