
Note: No compatibility mode selected!


Circuit: NOR2 seed characterization sample 4120039

Doing analysis at TEMP = -3.014080 and TNOM = 27.000000

Using SPARSE 1.3 as Direct Linear Solver

Initial Transient Solution
--------------------------

Node                                   Voltage
----                                   -------
vdd                                    1.74818
in                                           0
out                                    1.74818
pmid                                   1.74818
vin#branch                                   0
vdd#branch                        -3.55127e-12

 Reference value :  4.63825e-08
 Reference value :  1.07586e-07
No. of Data Rows : 60044

  Measurements for Transient Analysis

tphl                =  1.18723e-10 targ=  2.16048e-09 trig=  2.04176e-09
tplh                =  6.77893e-10 targ=  2.28032e-08 trig=  2.21253e-08
i_vdd_avg           =  -2.74524e-06 from=  5.00000e-09 to=  1.10000e-07
power_avg_uw        =  4.79917e+00


Total analysis time (seconds) = 0.474677

Total elapsed time (seconds) = 0.545 

Total DRAM available = 16384.000 MB.
DRAM currently available =  159.406 MB.
Maximum ngspice program size =   12.562 MB.
Current ngspice program size =   11.625 MB.

