
Note: No compatibility mode selected!


Circuit: NAND2 seed characterization sample 4120010

Doing analysis at TEMP = 23.114700 and TNOM = 27.000000

Using SPARSE 1.3 as Direct Linear Solver

Initial Transient Solution
--------------------------

Node                                   Voltage
----                                   -------
vdd                                    1.91158
in                                           0
out                                    1.91158
nmid                                 0.0383845
vin#branch                                   0
vdd#branch                         -2.1119e-12

 Reference value :  4.21444e-08
 Reference value :  9.83444e-08
No. of Data Rows : 60047

  Measurements for Transient Analysis

tphl                =  1.60396e-10 targ=  2.22809e-09 trig=  2.06770e-09
tplh                =  7.16999e-11 targ=  2.22748e-08 trig=  2.22031e-08
i_vdd_avg           =  -3.34589e-06 from=  5.00000e-09 to=  1.10002e-07
power_avg_uw        =  6.39594e+00


Total analysis time (seconds) = 0.518921

Total elapsed time (seconds) = 0.596 

Total DRAM available = 16384.000 MB.
DRAM currently available =  145.703 MB.
Maximum ngspice program size =   12.812 MB.
Current ngspice program size =   12.812 MB.

