
Note: No compatibility mode selected!


Circuit: INV seed characterization sample 4120044

Doing analysis at TEMP = 29.091000 and TNOM = 27.000000

Using SPARSE 1.3 as Direct Linear Solver

Initial Transient Solution
--------------------------

Node                                   Voltage
----                                   -------
vdd                                    1.78633
in                                           0
out                                    1.78633
vin#branch                                   0
vdd#branch                        -2.26143e-12

 Reference value :  7.23055e-08
No. of Data Rows : 60044

  Measurements for Transient Analysis

tphl                =  2.01038e-10 targ=  2.43417e-09 trig=  2.23314e-09
tplh                =  2.45746e-10 targ=  2.29452e-08 trig=  2.26994e-08
i_vdd_avg           =  -1.81765e-06 from=  5.00000e-09 to=  1.10002e-07
power_avg_uw        =  3.24692e+00


Total analysis time (seconds) = 0.295453

Total elapsed time (seconds) = 0.368 

Total DRAM available = 16384.000 MB.
DRAM currently available =  172.812 MB.
Maximum ngspice program size =   12.562 MB.
Current ngspice program size =   11.875 MB.

