
Note: No compatibility mode selected!


Circuit: INV seed characterization sample 4120042

Doing analysis at TEMP = 53.975700 and TNOM = 27.000000

Using SPARSE 1.3 as Direct Linear Solver

Initial Transient Solution
--------------------------

Node                                   Voltage
----                                   -------
vdd                                    1.96982
in                                           0
out                                    1.96982
vin#branch                                   0
vdd#branch                        -3.60063e-12

 Reference value :  7.07810e-08
No. of Data Rows : 60047

  Measurements for Transient Analysis

tphl                =  1.07665e-10 targ=  2.22817e-09 trig=  2.12050e-09
tplh                =  1.13124e-10 targ=  2.24746e-08 trig=  2.23615e-08
i_vdd_avg           =  -7.10422e-07 from=  5.00000e-09 to=  1.10001e-07
power_avg_uw        =  1.39940e+00


Total analysis time (seconds) = 0.298216

Total elapsed time (seconds) = 0.372 

Total DRAM available = 16384.000 MB.
DRAM currently available =  172.812 MB.
Maximum ngspice program size =   12.562 MB.
Current ngspice program size =   11.844 MB.

