
Note: No compatibility mode selected!


Circuit: NAND2 seed characterization sample 4012013

Doing analysis at TEMP = 80.660400 and TNOM = 27.000000

Using SPARSE 1.3 as Direct Linear Solver

Initial Transient Solution
--------------------------

Node                                   Voltage
----                                   -------
vdd                                    1.65977
in                                           0
out                                    1.65977
nmid                                 0.0362357
vin#branch                                   0
vdd#branch                        -1.88869e-12

 Reference value :  4.64026e-08
 Reference value :  1.07004e-07
No. of Data Rows : 60044

  Measurements for Transient Analysis

tphl                =  6.79063e-10 targ=  2.83487e-09 trig=  2.15581e-09
tplh                =  3.77888e-10 targ=  2.28453e-08 trig=  2.24674e-08
i_vdd_avg           =  -2.23129e-06 from=  5.00000e-09 to=  1.10000e-07
power_avg_uw        =  3.70343e+00


Total analysis time (seconds) = 0.474497

Total elapsed time (seconds) = 0.546 

Total DRAM available = 16384.000 MB.
DRAM currently available =  193.766 MB.
Maximum ngspice program size =   12.562 MB.
Current ngspice program size =   11.625 MB.

