
Note: No compatibility mode selected!


Circuit: NOR2 seed characterization sample 4012006

Doing analysis at TEMP = 72.970400 and TNOM = 27.000000

Using SPARSE 1.3 as Direct Linear Solver

Initial Transient Solution
--------------------------

Node                                   Voltage
----                                   -------
vdd                                    1.95926
in                                           0
out                                    1.95926
pmid                                   1.95926
vin#branch                                   0
vdd#branch                        -4.62624e-12

 Reference value :  4.48595e-08
 Reference value :  1.04438e-07
No. of Data Rows : 60044

  Measurements for Transient Analysis

tphl                =  1.39610e-10 targ=  2.31985e-09 trig=  2.18024e-09
tplh                =  3.47210e-10 targ=  2.28879e-08 trig=  2.25407e-08
i_vdd_avg           =  -7.05932e-07 from=  5.00000e-09 to=  1.10002e-07
power_avg_uw        =  1.38310e+00


Total analysis time (seconds) = 0.484851

Total elapsed time (seconds) = 0.558 

Total DRAM available = 16384.000 MB.
DRAM currently available =  218.766 MB.
Maximum ngspice program size =   12.562 MB.
Current ngspice program size =   11.688 MB.

