
Note: No compatibility mode selected!


Circuit: INV seed characterization sample 4012040

Doing analysis at TEMP = 27.430600 and TNOM = 27.000000

Using SPARSE 1.3 as Direct Linear Solver

Initial Transient Solution
--------------------------

Node                                   Voltage
----                                   -------
vdd                                    1.69906
in                                           0
out                                    1.69906
vin#branch                                   0
vdd#branch                        -1.72129e-12

 Reference value :  7.06460e-08
No. of Data Rows : 60047

  Measurements for Transient Analysis

tphl                =  4.08295e-10 targ=  2.48104e-09 trig=  2.07274e-09
tplh                =  5.43231e-10 targ=  2.27615e-08 trig=  2.22182e-08
i_vdd_avg           =  -2.87994e-06 from=  5.00000e-09 to=  1.10002e-07
power_avg_uw        =  4.89318e+00


Total analysis time (seconds) = 0.302908

Total elapsed time (seconds) = 0.374 

Total DRAM available = 16384.000 MB.
DRAM currently available =  204.109 MB.
Maximum ngspice program size =   12.562 MB.
Current ngspice program size =   11.625 MB.

