
Note: No compatibility mode selected!


Circuit: INV seed characterization sample 4012037

Doing analysis at TEMP = 53.741800 and TNOM = 27.000000

Using SPARSE 1.3 as Direct Linear Solver

Initial Transient Solution
--------------------------

Node                                   Voltage
----                                   -------
vdd                                    1.68994
in                                           0
out                                    1.68994
vin#branch                                   0
vdd#branch                         -2.1456e-12

 Reference value :  7.07586e-08
No. of Data Rows : 60044

  Measurements for Transient Analysis

tphl                =  8.36670e-11 targ=  2.18657e-09 trig=  2.10291e-09
tplh                =  1.00680e-10 targ=  2.24094e-08 trig=  2.23087e-08
i_vdd_avg           =  -6.86658e-07 from=  5.00000e-09 to=  1.10001e-07
power_avg_uw        =  1.16041e+00


Total analysis time (seconds) = 0.302039

Total elapsed time (seconds) = 0.372 

Total DRAM available = 16384.000 MB.
DRAM currently available =  204.109 MB.
Maximum ngspice program size =   12.562 MB.
Current ngspice program size =   11.656 MB.

