
Note: No compatibility mode selected!


Circuit: NOR2 seed characterization sample 4012046

Doing analysis at TEMP = 39.614300 and TNOM = 27.000000

Using SPARSE 1.3 as Direct Linear Solver

Initial Transient Solution
--------------------------

Node                                   Voltage
----                                   -------
vdd                                     1.8648
in                                           0
out                                     1.8648
pmid                                    1.8648
vin#branch                                   0
vdd#branch                        -3.80702e-12

 Reference value :  4.71647e-08
 Reference value :  1.08458e-07
No. of Data Rows : 60044

  Measurements for Transient Analysis

tphl                =  5.60571e-10 targ=  2.78843e-09 trig=  2.22785e-09
tplh                =  2.85543e-09 targ=  2.55390e-08 trig=  2.26836e-08
i_vdd_avg           =  -5.09914e-06 from=  5.00000e-09 to=  1.10000e-07
power_avg_uw        =  9.50888e+00


Total analysis time (seconds) = 0.473345

Total elapsed time (seconds) = 0.541 

Total DRAM available = 16384.000 MB.
DRAM currently available =  187.062 MB.
Maximum ngspice program size =   12.594 MB.
Current ngspice program size =   11.688 MB.

