
Note: No compatibility mode selected!


Circuit: NAND2 seed characterization sample 4012018

Doing analysis at TEMP = -4.221340 and TNOM = 27.000000

Using SPARSE 1.3 as Direct Linear Solver

Initial Transient Solution
--------------------------

Node                                   Voltage
----                                   -------
vdd                                     1.9365
in                                           0
out                                     1.9365
nmid                               0.000300067
vin#branch                                   0
vdd#branch                        -1.94736e-12

 Reference value :  4.66649e-08
 Reference value :  1.07117e-07
No. of Data Rows : 60044

  Measurements for Transient Analysis

tphl                =  7.89367e-10 targ=  2.99731e-09 trig=  2.20794e-09
tplh                =  4.02673e-10 targ=  2.30265e-08 trig=  2.26238e-08
i_vdd_avg           =  -5.42388e-06 from=  5.00000e-09 to=  1.10001e-07
power_avg_uw        =  1.05033e+01


Total analysis time (seconds) = 0.481954

Total elapsed time (seconds) = 0.550 

Total DRAM available = 16384.000 MB.
DRAM currently available =  169.812 MB.
Maximum ngspice program size =   12.562 MB.
Current ngspice program size =   11.656 MB.

