
Note: No compatibility mode selected!


Circuit: XOR2 seed characterization sample 4012027

Doing analysis at TEMP = 78.231900 and TNOM = 27.000000

Using SPARSE 1.3 as Direct Linear Solver

Initial Transient Solution
--------------------------

Node                                   Voltage
----                                   -------
vdd                                    1.90727
in                                           0
b                                      1.90727
abar                                   1.90727
bbar                               2.23512e-09
out                                    1.90727
vb#branch                                    0
vin#branch                         4.62483e-12
vdd#branch                        -1.63089e-11

 Reference value :  2.51390e-08
 Reference value :  5.97050e-08
 Reference value :  9.47390e-08
No. of Data Rows : 60044

  Measurements for Transient Analysis

tphl                =  1.87012e-10 targ=  2.24600e-09 trig=  2.05899e-09
tplh                =  1.98490e-10 targ=  2.23755e-08 trig=  2.21770e-08
i_vdd_avg           =  -2.36038e-06 from=  5.00000e-09 to=  1.10001e-07
power_avg_uw        =  4.50188e+00


Total analysis time (seconds) = 0.829172

Total elapsed time (seconds) = 0.907 

Total DRAM available = 16384.000 MB.
DRAM currently available =  192.953 MB.
Maximum ngspice program size =   13.328 MB.
Current ngspice program size =   13.328 MB.

