
Note: No compatibility mode selected!


Circuit: NAND2 seed characterization sample 4012034

Doing analysis at TEMP = 17.527200 and TNOM = 27.000000

Using SPARSE 1.3 as Direct Linear Solver

Initial Transient Solution
--------------------------

Node                                   Voltage
----                                   -------
vdd                                    1.76993
in                                           0
out                                    1.76993
nmid                                 0.0078772
vin#branch                                   0
vdd#branch                        -1.80249e-12

 Reference value :  4.57687e-08
 Reference value :  1.06538e-07
No. of Data Rows : 60044

  Measurements for Transient Analysis

tphl                =  3.33029e-10 targ=  2.42687e-09 trig=  2.09384e-09
tplh                =  1.53443e-10 targ=  2.24350e-08 trig=  2.22815e-08
i_vdd_avg           =  -5.57144e-06 from=  5.00000e-09 to=  1.10000e-07
power_avg_uw        =  9.86106e+00


Total analysis time (seconds) = 0.481348

Total elapsed time (seconds) = 0.554 

Total DRAM available = 16384.000 MB.
DRAM currently available =  182.141 MB.
Maximum ngspice program size =   12.562 MB.
Current ngspice program size =   11.625 MB.

