
Note: No compatibility mode selected!


Circuit: NOR2 seed characterization sample 4012010

Doing analysis at TEMP = 94.576300 and TNOM = 27.000000

Using SPARSE 1.3 as Direct Linear Solver

Initial Transient Solution
--------------------------

Node                                   Voltage
----                                   -------
vdd                                    1.93275
in                                           0
out                                    1.93275
pmid                                   1.93275
vin#branch                                   0
vdd#branch                        -1.05863e-11

 Reference value :  4.59091e-08
 Reference value :  1.05631e-07
No. of Data Rows : 60044

  Measurements for Transient Analysis

tphl                =  7.34779e-11 targ=  2.10155e-09 trig=  2.02807e-09
tplh                =  4.11298e-10 targ=  2.24955e-08 trig=  2.20842e-08
i_vdd_avg           =  -1.77680e-06 from=  5.00000e-09 to=  1.10001e-07
power_avg_uw        =  3.43411e+00


Total analysis time (seconds) = 0.48986

Total elapsed time (seconds) = 0.560 

Total DRAM available = 16384.000 MB.
DRAM currently available =  189.922 MB.
Maximum ngspice program size =   12.562 MB.
Current ngspice program size =   11.688 MB.

