
Note: No compatibility mode selected!


Circuit: INV seed characterization sample 4012016

Doing analysis at TEMP = 95.127100 and TNOM = 27.000000

Using SPARSE 1.3 as Direct Linear Solver

Initial Transient Solution
--------------------------

Node                                   Voltage
----                                   -------
vdd                                    1.76049
in                                           0
out                                    1.76049
vin#branch                                   0
vdd#branch                         -1.1427e-11

 Reference value :  7.13409e-08
No. of Data Rows : 60044

  Measurements for Transient Analysis

tphl                =  8.72623e-11 targ=  2.13923e-09 trig=  2.05197e-09
tplh                =  1.18089e-10 targ=  2.22740e-08 trig=  2.21559e-08
i_vdd_avg           =  -1.85961e-06 from=  5.00000e-09 to=  1.10001e-07
power_avg_uw        =  3.27382e+00


Total analysis time (seconds) = 0.298647

Total elapsed time (seconds) = 0.372 

Total DRAM available = 16384.000 MB.
DRAM currently available =  227.281 MB.
Maximum ngspice program size =   12.562 MB.
Current ngspice program size =   11.844 MB.

