
Note: No compatibility mode selected!


Circuit: XOR2 seed characterization sample 4012036

Doing analysis at TEMP = 9.285350 and TNOM = 27.000000

Using SPARSE 1.3 as Direct Linear Solver

Initial Transient Solution
--------------------------

Node                                   Voltage
----                                   -------
vdd                                    1.76462
in                                           0
b                                      1.76462
abar                                   1.76462
bbar                               9.76998e-10
out                                    1.76462
vb#branch                                    0
vin#branch                         1.79208e-12
vdd#branch                        -1.06788e-11

 Reference value :  2.62354e-08
 Reference value :  6.11202e-08
 Reference value :  9.62922e-08
No. of Data Rows : 60047

  Measurements for Transient Analysis

tphl                =  2.54178e-10 targ=  2.47477e-09 trig=  2.22059e-09
tplh                =  3.88370e-10 targ=  2.30501e-08 trig=  2.26618e-08
i_vdd_avg           =  -3.34687e-06 from=  5.00000e-09 to=  1.10001e-07
power_avg_uw        =  5.90596e+00


Total analysis time (seconds) = 0.818854

Total elapsed time (seconds) = 0.893 

Total DRAM available = 16384.000 MB.
DRAM currently available =  198.609 MB.
Maximum ngspice program size =   12.578 MB.
Current ngspice program size =   11.906 MB.

