
Note: No compatibility mode selected!


Circuit: NAND2 seed characterization sample 4012022

Doing analysis at TEMP = 78.056300 and TNOM = 27.000000

Using SPARSE 1.3 as Direct Linear Solver

Initial Transient Solution
--------------------------

Node                                   Voltage
----                                   -------
vdd                                    1.85942
in                                           0
out                                    1.85942
nmid                                  0.044262
vin#branch                                   0
vdd#branch                        -2.33503e-12

 Reference value :  4.12766e-08
 Reference value :  9.88458e-08
No. of Data Rows : 60041

  Measurements for Transient Analysis

tphl                =  1.66329e-10 targ=  2.32474e-09 trig=  2.15841e-09
tplh                =  1.16456e-10 targ=  2.25917e-08 trig=  2.24752e-08
i_vdd_avg           =  -8.93812e-07 from=  5.00000e-09 to=  1.10001e-07
power_avg_uw        =  1.66197e+00


Total analysis time (seconds) = 0.501674

Total elapsed time (seconds) = 0.579 

Total DRAM available = 16384.000 MB.
DRAM currently available =  182.609 MB.
Maximum ngspice program size =   12.562 MB.
Current ngspice program size =   11.938 MB.

