
Note: No compatibility mode selected!


Circuit: XOR2 seed characterization sample 4012021

Doing analysis at TEMP = 50.575100 and TNOM = 27.000000

Using SPARSE 1.3 as Direct Linear Solver

Initial Transient Solution
--------------------------

Node                                   Voltage
----                                   -------
vdd                                    1.92351
in                                           0
b                                      1.92351
abar                                   1.92351
bbar                               1.18822e-09
out                                    1.92351
vb#branch                                    0
vin#branch                          2.5934e-12
vdd#branch                        -1.27774e-11

 Reference value :  2.33486e-08
 Reference value :  5.62528e-08
 Reference value :  9.19068e-08
No. of Data Rows : 60044

  Measurements for Transient Analysis

tphl                =  1.60374e-10 targ=  2.18826e-09 trig=  2.02789e-09
tplh                =  2.61264e-10 targ=  2.23449e-08 trig=  2.20837e-08
i_vdd_avg           =  -3.84950e-06 from=  5.00000e-09 to=  1.10001e-07
power_avg_uw        =  7.40455e+00


Total analysis time (seconds) = 0.841437

Total elapsed time (seconds) = 0.921 

Total DRAM available = 16384.000 MB.
DRAM currently available =  199.906 MB.
Maximum ngspice program size =   12.578 MB.
Current ngspice program size =   11.766 MB.

