
Note: No compatibility mode selected!


Circuit: INV seed characterization sample 4012042

Doing analysis at TEMP = 46.852900 and TNOM = 27.000000

Using SPARSE 1.3 as Direct Linear Solver

Initial Transient Solution
--------------------------

Node                                   Voltage
----                                   -------
vdd                                     1.8455
in                                           0
out                                     1.8455
vin#branch                                   0
vdd#branch                        -2.08721e-12

 Reference value :  7.59604e-08
No. of Data Rows : 60041

  Measurements for Transient Analysis

tphl                =  2.18905e-10 targ=  2.37325e-09 trig=  2.15434e-09
tplh                =  2.38202e-10 targ=  2.27012e-08 trig=  2.24630e-08
i_vdd_avg           =  -3.38939e-06 from=  5.00000e-09 to=  1.10000e-07
power_avg_uw        =  6.25513e+00


Total analysis time (seconds) = 0.281499

Total elapsed time (seconds) = 0.350 

Total DRAM available = 16384.000 MB.
DRAM currently available =  197.688 MB.
Maximum ngspice program size =   12.562 MB.
Current ngspice program size =   11.594 MB.

