
Note: No compatibility mode selected!


Circuit: NOR2 seed characterization sample 4012035

Doing analysis at TEMP = 6.030480 and TNOM = 27.000000

Using SPARSE 1.3 as Direct Linear Solver

Initial Transient Solution
--------------------------

Node                                   Voltage
----                                   -------
vdd                                    1.97517
in                                           0
out                                    1.97517
pmid                                   1.97517
vin#branch                                   0
vdd#branch                        -3.99121e-12

 Reference value :  4.54850e-08
 Reference value :  1.04840e-07
No. of Data Rows : 60041

  Measurements for Transient Analysis

tphl                =  8.08451e-11 targ=  2.09617e-09 trig=  2.01533e-09
tplh                =  4.30605e-10 targ=  2.24766e-08 trig=  2.20460e-08
i_vdd_avg           =  -6.19216e-06 from=  5.00000e-09 to=  1.10000e-07
power_avg_uw        =  1.22306e+01


Total analysis time (seconds) = 0.491408

Total elapsed time (seconds) = 0.563 

Total DRAM available = 16384.000 MB.
DRAM currently available =  187.188 MB.
Maximum ngspice program size =   12.562 MB.
Current ngspice program size =   11.906 MB.

