
Note: No compatibility mode selected!


Circuit: XOR2 seed characterization sample 4012025

Doing analysis at TEMP = 72.064300 and TNOM = 27.000000

Using SPARSE 1.3 as Direct Linear Solver

Initial Transient Solution
--------------------------

Node                                   Voltage
----                                   -------
vdd                                    1.65358
in                                           0
b                                      1.65358
abar                                   1.65358
bbar                               1.66553e-09
out                                    1.65358
vb#branch                                    0
vin#branch                         3.69502e-12
vdd#branch                        -1.35973e-11

 Reference value :  2.52567e-08
 Reference value :  5.98418e-08
 Reference value :  9.47558e-08
No. of Data Rows : 60041

  Measurements for Transient Analysis

tphl                =  4.18646e-10 targ=  2.62107e-09 trig=  2.20242e-09
tplh                =  6.12630e-10 targ=  2.32199e-08 trig=  2.26073e-08
i_vdd_avg           =  -4.51085e-06 from=  5.00000e-09 to=  1.10001e-07
power_avg_uw        =  7.45905e+00


Total analysis time (seconds) = 0.829228

Total elapsed time (seconds) = 0.905 

Total DRAM available = 16384.000 MB.
DRAM currently available =  184.891 MB.
Maximum ngspice program size =   12.812 MB.
Current ngspice program size =   12.812 MB.

