
Note: No compatibility mode selected!


Circuit: NAND2 seed characterization sample 4122018

Doing analysis at TEMP = 17.418100 and TNOM = 27.000000

Using SPARSE 1.3 as Direct Linear Solver

Initial Transient Solution
--------------------------

Node                                   Voltage
----                                   -------
vdd                                    1.75067
in                                           0
out                                    1.75067
nmid                                 0.0320733
vin#branch                                   0
vdd#branch                        -1.89687e-12

 Reference value :  4.64825e-08
 Reference value :  1.08210e-07
No. of Data Rows : 60044

  Measurements for Transient Analysis

tphl                =  2.85569e-10 targ=  2.39933e-09 trig=  2.11376e-09
tplh                =  1.38571e-10 targ=  2.24799e-08 trig=  2.23413e-08
i_vdd_avg           =  -5.34120e-06 from=  5.00000e-09 to=  1.10000e-07
power_avg_uw        =  9.35067e+00


Total analysis time (seconds) = 0.475496

Total elapsed time (seconds) = 0.547 

Total DRAM available = 16384.000 MB.
DRAM currently available =  178.594 MB.
Maximum ngspice program size =   12.781 MB.
Current ngspice program size =   11.953 MB.

