
Note: No compatibility mode selected!


Circuit: INV seed characterization sample 4122004

Doing analysis at TEMP = 95.552700 and TNOM = 27.000000

Using SPARSE 1.3 as Direct Linear Solver

Initial Transient Solution
--------------------------

Node                                   Voltage
----                                   -------
vdd                                    1.96251
in                                           0
out                                    1.96251
vin#branch                                   0
vdd#branch                        -5.14411e-11

 Reference value :  7.42133e-08
No. of Data Rows : 60044

  Measurements for Transient Analysis

tphl                =  1.58183e-10 targ=  2.22325e-09 trig=  2.06507e-09
tplh                =  1.44739e-10 targ=  2.23399e-08 trig=  2.21952e-08
i_vdd_avg           =  -3.28689e-06 from=  5.00000e-09 to=  1.10001e-07
power_avg_uw        =  6.45055e+00


Total analysis time (seconds) = 0.287009

Total elapsed time (seconds) = 0.356 

Total DRAM available = 16384.000 MB.
DRAM currently available =  192.750 MB.
Maximum ngspice program size =   12.562 MB.
Current ngspice program size =   11.844 MB.

