
Note: No compatibility mode selected!


Circuit: NOR2 seed characterization sample 4122027

Doing analysis at TEMP = 95.438700 and TNOM = 27.000000

Using SPARSE 1.3 as Direct Linear Solver

Initial Transient Solution
--------------------------

Node                                   Voltage
----                                   -------
vdd                                    1.69159
in                                           0
out                                    1.69159
pmid                                   1.69159
vin#branch                                   0
vdd#branch                        -1.15451e-10

 Reference value :  4.56488e-08
 Reference value :  1.04891e-07
No. of Data Rows : 60044

  Measurements for Transient Analysis

tphl                =  1.75830e-10 targ=  2.36975e-09 trig=  2.19392e-09
tplh                =  7.14592e-10 targ=  2.32963e-08 trig=  2.25817e-08
i_vdd_avg           =  -4.42266e-06 from=  5.00000e-09 to=  1.10001e-07
power_avg_uw        =  7.48133e+00


Total analysis time (seconds) = 0.485492

Total elapsed time (seconds) = 0.556 

Total DRAM available = 16384.000 MB.
DRAM currently available =  209.594 MB.
Maximum ngspice program size =   12.562 MB.
Current ngspice program size =   11.625 MB.

