
Note: No compatibility mode selected!


Circuit: NAND2 seed characterization sample 4122024

Doing analysis at TEMP = 51.592300 and TNOM = 27.000000

Using SPARSE 1.3 as Direct Linear Solver

Initial Transient Solution
--------------------------

Node                                   Voltage
----                                   -------
vdd                                    1.96506
in                                           0
out                                    1.96506
nmid                                 0.0497023
vin#branch                                   0
vdd#branch                        -2.57363e-12

 Reference value :  4.61511e-08
 Reference value :  1.06571e-07
No. of Data Rows : 60044

  Measurements for Transient Analysis

tphl                =  3.79214e-10 targ=  2.56627e-09 trig=  2.18706e-09
tplh                =  2.23225e-10 targ=  2.27844e-08 trig=  2.25612e-08
i_vdd_avg           =  -4.21576e-06 from=  5.00000e-09 to=  1.10001e-07
power_avg_uw        =  8.28423e+00


Total analysis time (seconds) = 0.482627

Total elapsed time (seconds) = 0.555 

Total DRAM available = 16384.000 MB.
DRAM currently available =  174.156 MB.
Maximum ngspice program size =   12.625 MB.
Current ngspice program size =   11.969 MB.

