
Note: No compatibility mode selected!


Circuit: INV seed characterization sample 4122015

Doing analysis at TEMP = 76.887700 and TNOM = 27.000000

Using SPARSE 1.3 as Direct Linear Solver

Initial Transient Solution
--------------------------

Node                                   Voltage
----                                   -------
vdd                                    1.66387
in                                           0
out                                    1.66387
vin#branch                                   0
vdd#branch                        -2.24455e-11

 Reference value :  7.11923e-08
No. of Data Rows : 60041

  Measurements for Transient Analysis

tphl                =  6.59166e-11 targ=  2.08023e-09 trig=  2.01431e-09
tplh                =  6.42696e-11 targ=  2.21072e-08 trig=  2.20429e-08
i_vdd_avg           =  -1.39185e-06 from=  5.00000e-09 to=  1.10000e-07
power_avg_uw        =  2.31585e+00


Total analysis time (seconds) = 0.298479

Total elapsed time (seconds) = 0.371 

Total DRAM available = 16384.000 MB.
DRAM currently available =  153.172 MB.
Maximum ngspice program size =   12.562 MB.
Current ngspice program size =   11.625 MB.

