
Note: No compatibility mode selected!


Circuit: NAND2 seed characterization sample 4122002

Doing analysis at TEMP = -17.160100 and TNOM = 27.000000

Using SPARSE 1.3 as Direct Linear Solver

Initial Transient Solution
--------------------------

Node                                   Voltage
----                                   -------
vdd                                    1.94613
in                                           0
out                                    1.94613
nmid                                  0.001398
vin#branch                                   0
vdd#branch                        -1.96017e-12

 Reference value :  4.77859e-08
 Reference value :  1.12225e-07
No. of Data Rows : 60041

  Measurements for Transient Analysis

tphl                =  1.55571e-10 targ=  2.28902e-09 trig=  2.13345e-09
tplh                =  1.03054e-10 targ=  2.25034e-08 trig=  2.24003e-08
i_vdd_avg           =  -8.31994e-07 from=  5.00000e-09 to=  1.10001e-07
power_avg_uw        =  1.61917e+00


Total analysis time (seconds) = 0.454028

Total elapsed time (seconds) = 0.522 

Total DRAM available = 16384.000 MB.
DRAM currently available =  192.750 MB.
Maximum ngspice program size =   12.562 MB.
Current ngspice program size =   11.906 MB.

