
Note: No compatibility mode selected!


Circuit: NAND2 seed characterization sample 4122029

Doing analysis at TEMP = 32.410200 and TNOM = 27.000000

Using SPARSE 1.3 as Direct Linear Solver

Initial Transient Solution
--------------------------

Node                                   Voltage
----                                   -------
vdd                                    1.66854
in                                           0
out                                    1.66854
nmid                                 0.0404447
vin#branch                                   0
vdd#branch                        -1.99782e-12

 Reference value :  4.35874e-08
 Reference value :  1.03682e-07
No. of Data Rows : 60044

  Measurements for Transient Analysis

tphl                =  1.97144e-10 targ=  2.34034e-09 trig=  2.14319e-09
tplh                =  1.43208e-10 targ=  2.25728e-08 trig=  2.24296e-08
i_vdd_avg           =  -2.30944e-06 from=  5.00000e-09 to=  1.10002e-07
power_avg_uw        =  3.85340e+00


Total analysis time (seconds) = 0.484013

Total elapsed time (seconds) = 0.560 

Total DRAM available = 16384.000 MB.
DRAM currently available =  224.812 MB.
Maximum ngspice program size =   12.562 MB.
Current ngspice program size =   11.844 MB.

