
Note: No compatibility mode selected!


Circuit: NOR2 seed characterization sample 4122013

Doing analysis at TEMP = 74.929400 and TNOM = 27.000000

Using SPARSE 1.3 as Direct Linear Solver

Initial Transient Solution
--------------------------

Node                                   Voltage
----                                   -------
vdd                                    1.63799
in                                           0
out                                    1.63799
pmid                                   1.63799
vin#branch                                   0
vdd#branch                        -2.42168e-11

 Reference value :  4.48891e-08
 Reference value :  1.04401e-07
No. of Data Rows : 60044

  Measurements for Transient Analysis

tphl                =  2.24854e-10 targ=  2.36492e-09 trig=  2.14007e-09
tplh                =  8.19072e-10 targ=  2.32393e-08 trig=  2.24202e-08
i_vdd_avg           =  -5.02550e-06 from=  5.00000e-09 to=  1.10001e-07
power_avg_uw        =  8.23172e+00


Total analysis time (seconds) = 0.485754

Total elapsed time (seconds) = 0.558 

Total DRAM available = 16384.000 MB.
DRAM currently available =  162.828 MB.
Maximum ngspice program size =   12.562 MB.
Current ngspice program size =   11.594 MB.

