
Note: No compatibility mode selected!


Circuit: XOR2 seed characterization sample 4122048

Doing analysis at TEMP = 99.366700 and TNOM = 27.000000

Using SPARSE 1.3 as Direct Linear Solver

Initial Transient Solution
--------------------------

Node                                   Voltage
----                                   -------
vdd                                    1.87309
in                                           0
b                                      1.87309
abar                                   1.87309
bbar                               8.80069e-09
out                                    1.87309
vb#branch                                    0
vin#branch                         1.35601e-10
vdd#branch                        -2.49661e-10

 Reference value :  2.70750e-08
 Reference value :  6.37210e-08
 Reference value :  1.03151e-07
No. of Data Rows : 60044

  Measurements for Transient Analysis

tphl                =  1.45007e-10 targ=  2.16002e-09 trig=  2.01501e-09
tplh                =  1.42685e-10 targ=  2.21877e-08 trig=  2.20450e-08
i_vdd_avg           =  -3.45489e-06 from=  5.00000e-09 to=  1.10001e-07
power_avg_uw        =  6.47133e+00


Total analysis time (seconds) = 0.769756

Total elapsed time (seconds) = 0.839 

Total DRAM available = 16384.000 MB.
DRAM currently available =  216.828 MB.
Maximum ngspice program size =   12.578 MB.
Current ngspice program size =   11.797 MB.

