
Note: No compatibility mode selected!


Circuit: NOR2 seed characterization sample 4122030

Doing analysis at TEMP = 0.764662 and TNOM = 27.000000

Using SPARSE 1.3 as Direct Linear Solver

Initial Transient Solution
--------------------------

Node                                   Voltage
----                                   -------
vdd                                    1.87422
in                                           0
out                                    1.87422
pmid                                   1.87422
vin#branch                                   0
vdd#branch                        -3.97188e-12

 Reference value :  4.31000e-08
 Reference value :  1.02468e-07
No. of Data Rows : 60041

  Measurements for Transient Analysis

tphl                =  1.06307e-10 targ=  2.32878e-09 trig=  2.22248e-09
tplh                =  3.87036e-10 targ=  2.30545e-08 trig=  2.26674e-08
i_vdd_avg           =  -3.20794e-06 from=  5.00000e-09 to=  1.10001e-07
power_avg_uw        =  6.01238e+00


Total analysis time (seconds) = 0.489652

Total elapsed time (seconds) = 0.565 

Total DRAM available = 16384.000 MB.
DRAM currently available =  224.812 MB.
Maximum ngspice program size =   12.562 MB.
Current ngspice program size =   11.625 MB.

