
Note: No compatibility mode selected!


Circuit: NAND2 seed characterization sample 4122033

Doing analysis at TEMP = 3.195440 and TNOM = 27.000000

Using SPARSE 1.3 as Direct Linear Solver

Initial Transient Solution
--------------------------

Node                                   Voltage
----                                   -------
vdd                                    1.64994
in                                           0
out                                    1.64994
nmid                                0.00496715
vin#branch                                   0
vdd#branch                        -1.67408e-12

 Reference value :  3.71464e-08
 Reference value :  8.88727e-08
No. of Data Rows : 60044

  Measurements for Transient Analysis

tphl                =  3.02657e-10 targ=  2.46250e-09 trig=  2.15984e-09
tplh                =  1.73864e-10 targ=  2.26534e-08 trig=  2.24795e-08
i_vdd_avg           =  -7.35127e-07 from=  5.00000e-09 to=  1.10000e-07
power_avg_uw        =  1.21292e+00


Total analysis time (seconds) = 0.561508

Total elapsed time (seconds) = 0.642 

Total DRAM available = 16384.000 MB.
DRAM currently available =  212.359 MB.
Maximum ngspice program size =   12.562 MB.
Current ngspice program size =   12.266 MB.

