
Note: No compatibility mode selected!


Circuit: INV seed characterization sample 4122008

Doing analysis at TEMP = 87.254200 and TNOM = 27.000000

Using SPARSE 1.3 as Direct Linear Solver

Initial Transient Solution
--------------------------

Node                                   Voltage
----                                   -------
vdd                                    1.87755
in                                           0
out                                    1.87755
vin#branch                                   0
vdd#branch                         -6.6095e-11

 Reference value :  6.48451e-08
No. of Data Rows : 60047

  Measurements for Transient Analysis

tphl                =  4.21455e-11 targ=  2.14666e-09 trig=  2.10451e-09
tplh                =  7.19651e-11 targ=  2.23855e-08 trig=  2.23135e-08
i_vdd_avg           =  -6.81282e-07 from=  5.00000e-09 to=  1.10001e-07
power_avg_uw        =  1.27914e+00


Total analysis time (seconds) = 0.321584

Total elapsed time (seconds) = 0.398 

Total DRAM available = 16384.000 MB.
DRAM currently available =  192.453 MB.
Maximum ngspice program size =   12.656 MB.
Current ngspice program size =   12.656 MB.

