
Note: No compatibility mode selected!


Circuit: XOR2 seed characterization sample 4122035

Doing analysis at TEMP = 8.814600 and TNOM = 27.000000

Using SPARSE 1.3 as Direct Linear Solver

Initial Transient Solution
--------------------------

Node                                   Voltage
----                                   -------
vdd                                    1.82294
in                                           0
b                                      1.82294
abar                                   1.82294
bbar                               2.46813e-09
out                                    1.82294
vb#branch                                    0
vin#branch                         1.92839e-12
vdd#branch                        -1.11644e-11

 Reference value :  2.10155e-08
 Reference value :  5.09335e-08
 Reference value :  8.19600e-08
No. of Data Rows : 60044

  Measurements for Transient Analysis

tphl                =  2.24123e-10 targ=  2.29036e-09 trig=  2.06624e-09
tplh                =  3.32083e-10 targ=  2.25308e-08 trig=  2.21987e-08
i_vdd_avg           =  -2.37646e-06 from=  5.00000e-09 to=  1.10002e-07
power_avg_uw        =  4.33215e+00


Total analysis time (seconds) = 0.907632

Total elapsed time (seconds) = 0.990 

Total DRAM available = 16384.000 MB.
DRAM currently available =  212.359 MB.
Maximum ngspice program size =   12.578 MB.
Current ngspice program size =   11.734 MB.

