
Note: No compatibility mode selected!


Circuit: INV seed characterization sample 4122045

Doing analysis at TEMP = 24.112000 and TNOM = 27.000000

Using SPARSE 1.3 as Direct Linear Solver

Initial Transient Solution
--------------------------

Node                                   Voltage
----                                   -------
vdd                                    1.72571
in                                           0
out                                    1.72571
vin#branch                                   0
vdd#branch                        -2.09784e-12

 Reference value :  7.63873e-08
No. of Data Rows : 60047

  Measurements for Transient Analysis

tphl                =  1.06658e-10 targ=  2.25423e-09 trig=  2.14757e-09
tplh                =  1.27717e-10 targ=  2.25704e-08 trig=  2.24427e-08
i_vdd_avg           =  -8.55842e-07 from=  5.00000e-09 to=  1.10001e-07
power_avg_uw        =  1.47694e+00


Total analysis time (seconds) = 0.284768

Total elapsed time (seconds) = 0.351 

Total DRAM available = 16384.000 MB.
DRAM currently available =  222.516 MB.
Maximum ngspice program size =   12.609 MB.
Current ngspice program size =   12.297 MB.

