
Note: No compatibility mode selected!


Circuit: NAND2 seed characterization sample 4300031

Doing analysis at TEMP = 27.260200 and TNOM = 27.000000

Using SPARSE 1.3 as Direct Linear Solver

Initial Transient Solution
--------------------------

Node                                   Voltage
----                                   -------
vdd                                    1.86466
in                                           0
out                                    1.86466
nmid                                 0.0543018
vin#branch                                   0
vdd#branch                        -3.51042e-12

 Reference value :  4.67456e-08
 Reference value :  1.07110e-07
No. of Data Rows : 60041

  Measurements for Transient Analysis

tphl                =  2.15448e-10 targ=  2.23772e-09 trig=  2.02228e-09
tplh                =  6.88390e-11 targ=  2.21357e-08 trig=  2.20668e-08
i_vdd_avg           =  -4.33781e-06 from=  5.00000e-09 to=  1.10000e-07
power_avg_uw        =  8.08854e+00


Total analysis time (seconds) = 0.483013

Total elapsed time (seconds) = 0.554 

Total DRAM available = 16384.000 MB.
DRAM currently available =  109.219 MB.
Maximum ngspice program size =   12.594 MB.
Current ngspice program size =   11.688 MB.

