
Note: No compatibility mode selected!


Circuit: NAND2 seed characterization sample 4300024

Doing analysis at TEMP = 89.656900 and TNOM = 27.000000

Using SPARSE 1.3 as Direct Linear Solver

Initial Transient Solution
--------------------------

Node                                   Voltage
----                                   -------
vdd                                    1.78297
in                                           0
out                                    1.78297
nmid                                 0.0573668
vin#branch                                   0
vdd#branch                        -4.69777e-11

 Reference value :  4.61104e-08
 Reference value :  1.06970e-07
No. of Data Rows : 60047

  Measurements for Transient Analysis

tphl                =  3.11224e-10 targ=  2.34195e-09 trig=  2.03072e-09
tplh                =  1.22010e-10 targ=  2.22142e-08 trig=  2.20922e-08
i_vdd_avg           =  -3.36942e-06 from=  5.00000e-09 to=  1.10002e-07
power_avg_uw        =  6.00757e+00


Total analysis time (seconds) = 0.467494

Total elapsed time (seconds) = 0.541 

Total DRAM available = 16384.000 MB.
DRAM currently available =  135.438 MB.
Maximum ngspice program size =   12.562 MB.
Current ngspice program size =   11.594 MB.

