
Note: No compatibility mode selected!


Circuit: INV seed characterization sample 4300046

Doing analysis at TEMP = 55.205600 and TNOM = 27.000000

Using SPARSE 1.3 as Direct Linear Solver

Initial Transient Solution
--------------------------

Node                                   Voltage
----                                   -------
vdd                                     1.7521
in                                           0
out                                     1.7521
vin#branch                                   0
vdd#branch                        -1.08596e-10

 Reference value :  7.53021e-08
No. of Data Rows : 60044

  Measurements for Transient Analysis

tphl                =  1.47068e-10 targ=  2.34884e-09 trig=  2.20178e-09
tplh                =  1.60515e-10 targ=  2.27658e-08 trig=  2.26053e-08
i_vdd_avg           =  -3.58834e-06 from=  5.00000e-09 to=  1.10000e-07
power_avg_uw        =  6.28713e+00


Total analysis time (seconds) = 0.284053

Total elapsed time (seconds) = 0.352 

Total DRAM available = 16384.000 MB.
DRAM currently available =   96.203 MB.
Maximum ngspice program size =   12.562 MB.
Current ngspice program size =   11.594 MB.

