
Note: No compatibility mode selected!


Circuit: NOR2 seed characterization sample 4300037

Doing analysis at TEMP = 40.139200 and TNOM = 27.000000

Using SPARSE 1.3 as Direct Linear Solver

Initial Transient Solution
--------------------------

Node                                   Voltage
----                                   -------
vdd                                    1.69744
in                                           0
out                                    1.69744
pmid                                   1.69744
vin#branch                                   0
vdd#branch                        -5.81208e-11

 Reference value :  3.87149e-08
 Reference value :  9.24479e-08
No. of Data Rows : 60041

  Measurements for Transient Analysis

tphl                =  1.08428e-10 targ=  2.28890e-09 trig=  2.18047e-09
tplh                =  2.60159e-10 targ=  2.28016e-08 trig=  2.25414e-08
i_vdd_avg           =  -3.17124e-06 from=  5.00000e-09 to=  1.10001e-07
power_avg_uw        =  5.38299e+00


Total analysis time (seconds) = 0.530288

Total elapsed time (seconds) = 0.608 

Total DRAM available = 16384.000 MB.
DRAM currently available =  134.016 MB.
Maximum ngspice program size =   12.562 MB.
Current ngspice program size =   11.594 MB.

