
Note: No compatibility mode selected!


Circuit: NOR2 seed characterization sample 4300021

Doing analysis at TEMP = 64.950000 and TNOM = 27.000000

Using SPARSE 1.3 as Direct Linear Solver

Initial Transient Solution
--------------------------

Node                                   Voltage
----                                   -------
vdd                                    1.84507
in                                           0
out                                    1.84507
pmid                                   1.84507
vin#branch                                   0
vdd#branch                        -2.43328e-10

 Reference value :  4.57155e-08
 Reference value :  1.05600e-07
No. of Data Rows : 60041

  Measurements for Transient Analysis

tphl                =  4.05913e-11 targ=  2.05385e-09 trig=  2.01326e-09
tplh                =  1.41252e-10 targ=  2.21810e-08 trig=  2.20398e-08
i_vdd_avg           =  -2.32992e-06 from=  5.00000e-09 to=  1.10000e-07
power_avg_uw        =  4.29886e+00


Total analysis time (seconds) = 0.474982

Total elapsed time (seconds) = 0.546 

Total DRAM available = 16384.000 MB.
DRAM currently available =  143.375 MB.
Maximum ngspice program size =   12.562 MB.
Current ngspice program size =   11.656 MB.

