
Note: No compatibility mode selected!


Circuit: NOR2 seed characterization sample 4300018

Doing analysis at TEMP = 2.170060 and TNOM = 27.000000

Using SPARSE 1.3 as Direct Linear Solver

Initial Transient Solution
--------------------------

Node                                   Voltage
----                                   -------
vdd                                    1.73217
in                                           0
out                                    1.73217
pmid                                   1.73217
vin#branch                                   0
vdd#branch                        -5.44804e-12

 Reference value :  4.13321e-08
 Reference value :  9.86685e-08
No. of Data Rows : 60044

  Measurements for Transient Analysis

tphl                =  7.42096e-11 targ=  2.20498e-09 trig=  2.13077e-09
tplh                =  1.87756e-10 targ=  2.25801e-08 trig=  2.23923e-08
i_vdd_avg           =  -1.44045e-06 from=  5.00000e-09 to=  1.10000e-07
power_avg_uw        =  2.49510e+00


Total analysis time (seconds) = 0.50584

Total elapsed time (seconds) = 0.582 

Total DRAM available = 16384.000 MB.
DRAM currently available =  112.078 MB.
Maximum ngspice program size =   12.562 MB.
Current ngspice program size =   11.625 MB.

