
Note: No compatibility mode selected!


Circuit: NAND2 seed characterization sample 4300008

Doing analysis at TEMP = 66.395300 and TNOM = 27.000000

Using SPARSE 1.3 as Direct Linear Solver

Initial Transient Solution
--------------------------

Node                                   Voltage
----                                   -------
vdd                                     1.9527
in                                           0
out                                     1.9527
nmid                                  0.059726
vin#branch                                   0
vdd#branch                        -2.82499e-11

 Reference value :  4.43691e-08
 Reference value :  1.04059e-07
No. of Data Rows : 60044

  Measurements for Transient Analysis

tphl                =  1.84196e-10 targ=  2.35724e-09 trig=  2.17304e-09
tplh                =  8.77260e-11 targ=  2.26068e-08 trig=  2.25191e-08
i_vdd_avg           =  -2.93173e-06 from=  5.00000e-09 to=  1.10001e-07
power_avg_uw        =  5.72478e+00


Total analysis time (seconds) = 0.484613

Total elapsed time (seconds) = 0.557 

Total DRAM available = 16384.000 MB.
DRAM currently available =  125.266 MB.
Maximum ngspice program size =   12.594 MB.
Current ngspice program size =   11.938 MB.

