
Note: No compatibility mode selected!


Circuit: INV seed characterization sample 4300048

Doing analysis at TEMP = 42.691800 and TNOM = 27.000000

Using SPARSE 1.3 as Direct Linear Solver

Initial Transient Solution
--------------------------

Node                                   Voltage
----                                   -------
vdd                                    1.69224
in                                           0
out                                    1.69224
vin#branch                                   0
vdd#branch                        -1.39245e-11

 Reference value :  7.57059e-08
No. of Data Rows : 60047

  Measurements for Transient Analysis

tphl                =  1.13623e-10 targ=  2.27935e-09 trig=  2.16573e-09
tplh                =  1.49537e-10 targ=  2.26467e-08 trig=  2.24972e-08
i_vdd_avg           =  -7.94908e-07 from=  5.00000e-09 to=  1.10002e-07
power_avg_uw        =  1.34518e+00


Total analysis time (seconds) = 0.284473

Total elapsed time (seconds) = 0.352 

Total DRAM available = 16384.000 MB.
DRAM currently available =  104.078 MB.
Maximum ngspice program size =   12.562 MB.
Current ngspice program size =   11.656 MB.

