
Note: No compatibility mode selected!


Circuit: XOR2 seed characterization sample 4300041

Doing analysis at TEMP = 32.289500 and TNOM = 27.000000

Using SPARSE 1.3 as Direct Linear Solver

Initial Transient Solution
--------------------------

Node                                   Voltage
----                                   -------
vdd                                    1.78587
in                                           0
b                                      1.78587
abar                                   1.78587
bbar                               1.52505e-09
out                                    1.78587
vb#branch                                    0
vin#branch                         2.89489e-11
vdd#branch                        -5.90316e-11

 Reference value :  2.16585e-08
 Reference value :  5.28305e-08
 Reference value :  9.09305e-08
No. of Data Rows : 60047

  Measurements for Transient Analysis

tphl                =  1.59803e-10 targ=  2.19654e-09 trig=  2.03674e-09
tplh                =  2.26555e-10 targ=  2.23368e-08 trig=  2.21102e-08
i_vdd_avg           =  -4.54859e-06 from=  5.00000e-09 to=  1.10002e-07
power_avg_uw        =  8.12319e+00


Total analysis time (seconds) = 0.828707

Total elapsed time (seconds) = 0.911 

Total DRAM available = 16384.000 MB.
DRAM currently available =  117.531 MB.
Maximum ngspice program size =   12.578 MB.
Current ngspice program size =   11.766 MB.

