
Note: No compatibility mode selected!


Circuit: XOR2 seed characterization sample 4300015

Doing analysis at TEMP = 83.735500 and TNOM = 27.000000

Using SPARSE 1.3 as Direct Linear Solver

Initial Transient Solution
--------------------------

Node                                   Voltage
----                                   -------
vdd                                    1.82033
in                                           0
b                                      1.82033
abar                                   1.82033
bbar                               2.74483e-08
out                                    1.82033
vb#branch                                    0
vin#branch                         4.10703e-10
vdd#branch                        -7.36642e-10

 Reference value :  2.61176e-08
 Reference value :  6.02743e-08
 Reference value :  9.29343e-08
No. of Data Rows : 60047

  Measurements for Transient Analysis

tphl                =  3.36537e-10 targ=  2.56419e-09 trig=  2.22765e-09
tplh                =  4.36287e-10 targ=  2.31192e-08 trig=  2.26829e-08
i_vdd_avg           =  -5.75535e-06 from=  5.00000e-09 to=  1.10002e-07
power_avg_uw        =  1.04766e+01


Total analysis time (seconds) = 0.847066

Total elapsed time (seconds) = 0.920 

Total DRAM available = 16384.000 MB.
DRAM currently available =  152.641 MB.
Maximum ngspice program size =   12.578 MB.
Current ngspice program size =   11.750 MB.

