
Note: No compatibility mode selected!


Circuit: NAND2 seed characterization sample 4300001

Doing analysis at TEMP = 45.108700 and TNOM = 27.000000

Using SPARSE 1.3 as Direct Linear Solver

Initial Transient Solution
--------------------------

Node                                   Voltage
----                                   -------
vdd                                    1.84962
in                                           0
out                                    1.84962
nmid                                 0.0557306
vin#branch                                   0
vdd#branch                        -4.73384e-12

 Reference value :  4.80484e-08
 Reference value :  1.09526e-07
No. of Data Rows : 60047

  Measurements for Transient Analysis

tphl                =  2.06479e-10 targ=  2.38918e-09 trig=  2.18271e-09
tplh                =  1.13191e-10 targ=  2.26613e-08 trig=  2.25481e-08
i_vdd_avg           =  -1.49772e-06 from=  5.00000e-09 to=  1.10002e-07
power_avg_uw        =  2.77022e+00


Total analysis time (seconds) = 0.468416

Total elapsed time (seconds) = 0.536 

Total DRAM available = 16384.000 MB.
DRAM currently available =  112.062 MB.
Maximum ngspice program size =   12.562 MB.
Current ngspice program size =   11.656 MB.

