
Note: No compatibility mode selected!


Circuit: XOR2 seed characterization sample 4300012

Doing analysis at TEMP = 97.449400 and TNOM = 27.000000

Using SPARSE 1.3 as Direct Linear Solver

Initial Transient Solution
--------------------------

Node                                   Voltage
----                                   -------
vdd                                     1.7391
in                                           0
b                                       1.7391
abar                                    1.7391
bbar                               9.85502e-08
out                                     1.7391
vb#branch                                    0
vin#branch                         5.37941e-10
vdd#branch                        -9.58979e-10

 Reference value :  2.68574e-08
 Reference value :  6.18352e-08
 Reference value :  9.68512e-08
No. of Data Rows : 60044

  Measurements for Transient Analysis

tphl                =  1.82482e-10 targ=  2.25757e-09 trig=  2.07509e-09
tplh                =  1.70283e-10 targ=  2.23956e-08 trig=  2.22253e-08
i_vdd_avg           =  -2.10312e-06 from=  5.00000e-09 to=  1.10001e-07
power_avg_uw        =  3.65753e+00


Total analysis time (seconds) = 0.821337

Total elapsed time (seconds) = 0.891 

Total DRAM available = 16384.000 MB.
DRAM currently available =  151.953 MB.
Maximum ngspice program size =   12.578 MB.
Current ngspice program size =   11.750 MB.

