
Note: Compatibility modes selected: hs a


Circuit: SKY130 library cell aoi21_1 A1_to_Y__A2=1,B1=0

option SCALE: Scale is set to 1e-06 for instance and model parameters
Doing analysis at TEMP = 83.984955 and TNOM = 27.000000

Using KLU as Direct Linear Solver
 Reference value :  3.36875e-08
 Reference value :  1.40535e-07
 Reference value :  2.31559e-07
 Reference value :  3.34390e-07
No. of Data Rows : 68030

  Measurements for Transient Analysis

tphl                =  -2.54502e-10 targ=  2.94237e-08 trig=  2.96782e-08
tplh                =  1.47117e-09 targ=  1.12506e-07 trig=  1.11035e-07
i_vdd_avg           =  -1.01892e-06 from=  1.00000e-08 to=  3.30000e-07
power_avg_uw        =  1.95028e+00


Total analysis time (seconds) = 0.870049

Total elapsed time (seconds) = 1.026 

Total DRAM available = 16384.000 MB.
DRAM currently available =  142.531 MB.
Maximum ngspice program size =   24.828 MB.
Current ngspice program size =   24.828 MB.

