
Note: Compatibility modes selected: hs a


Circuit: SKY130 library cell inv_1 A_to_Y

option SCALE: Scale is set to 1e-06 for instance and model parameters
Doing analysis at TEMP = 3.148608 and TNOM = 27.000000

Using KLU as Direct Linear Solver
 Reference value :  9.85404e-08
No. of Data Rows : 68034

  Measurements for Transient Analysis

tphl                =  1.35010e-09 targ=  3.04940e-08 trig=  2.91439e-08
tplh                =  3.89414e-09 targ=  1.13326e-07 trig=  1.09432e-07
i_vdd_avg           =  -1.75154e-06 from=  1.00000e-08 to=  3.30003e-07
power_avg_uw        =  2.86835e+00


Total analysis time (seconds) = 0.334785

Total elapsed time (seconds) = 0.496 

Total DRAM available = 16384.000 MB.
DRAM currently available =  132.047 MB.
Maximum ngspice program size =   25.484 MB.
Current ngspice program size =   25.484 MB.

