
Note: Compatibility modes selected: hs a


Circuit: SKY130 library cell nand2_1 A_to_Y__B=1

option SCALE: Scale is set to 1e-06 for instance and model parameters
Doing analysis at TEMP = 37.623468 and TNOM = 27.000000

Using KLU as Direct Linear Solver
 Reference value :  6.08542e-08
 Reference value :  2.23539e-07
No. of Data Rows : 68030

  Measurements for Transient Analysis

tphl                =  3.02480e-10 targ=  2.51683e-08 trig=  2.48659e-08
tplh                =  5.56588e-10 targ=  9.71542e-08 trig=  9.65976e-08
i_vdd_avg           =  -2.22590e-07 from=  1.00000e-08 to=  3.30001e-07
power_avg_uw        =  3.97761e-01


Total analysis time (seconds) = 0.542451

Total elapsed time (seconds) = 0.696 

Total DRAM available = 16384.000 MB.
DRAM currently available =  111.547 MB.
Maximum ngspice program size =   25.734 MB.
Current ngspice program size =   25.734 MB.

