
Note: Compatibility modes selected: hs a


Circuit: SKY130 library cell oai21_1 A1_to_Y__A2=0,B1=1

option SCALE: Scale is set to 1e-06 for instance and model parameters
Doing analysis at TEMP = -32.624234 and TNOM = 27.000000

Using KLU as Direct Linear Solver
 Reference value :  3.00052e-08
 Reference value :  1.32193e-07
 Reference value :  2.30645e-07
 Reference value :  3.39313e-07
No. of Data Rows : 68034

  Measurements for Transient Analysis

tphl                =  1.15862e-09 targ=  2.62550e-08 trig=  2.50964e-08
tplh                =  3.51204e-09 targ=  1.00801e-07 trig=  9.72891e-08
i_vdd_avg           =  -1.52718e-06 from=  1.00000e-08 to=  3.30003e-07
power_avg_uw        =  2.52738e+00


Total analysis time (seconds) = 0.859322

Total elapsed time (seconds) = 1.024 

Total DRAM available = 16384.000 MB.
DRAM currently available =   72.047 MB.
Maximum ngspice program size =   27.375 MB.
Current ngspice program size =   27.375 MB.

