
Note: Compatibility modes selected: hs a


Circuit: SKY130 library cell inv_1 A_to_Y

option SCALE: Scale is set to 1e-06 for instance and model parameters
Doing analysis at TEMP = -4.160742 and TNOM = 27.000000

Using KLU as Direct Linear Solver
 Reference value :  1.09558e-07
No. of Data Rows : 68034

  Measurements for Transient Analysis

tphl                =  1.62094e-10 targ=  2.43586e-08 trig=  2.41965e-08
tplh                =  3.09844e-10 targ=  9.48993e-08 trig=  9.45895e-08
i_vdd_avg           =  -2.26950e-07 from=  1.00000e-08 to=  3.30003e-07
power_avg_uw        =  3.76902e-01


Total analysis time (seconds) = 0.326156

Total elapsed time (seconds) = 0.455 

Total DRAM available = 16384.000 MB.
DRAM currently available =  203.391 MB.
Maximum ngspice program size =   24.359 MB.
Current ngspice program size =   24.359 MB.

