
Note: Compatibility modes selected: hs a


Circuit: SKY130 library cell aoi21_4 A1_to_Y__A2=1,B1=0

option SCALE: Scale is set to 1e-06 for instance and model parameters
Doing analysis at TEMP = 44.736266 and TNOM = 27.000000

Using KLU as Direct Linear Solver
 Reference value :  7.39140e-09
 Reference value :  3.66625e-08
 Reference value :  6.39125e-08
 Reference value :  9.33575e-08
 Reference value :  1.22633e-07
 Reference value :  1.50728e-07
 Reference value :  1.81373e-07
 Reference value :  2.09083e-07
 Reference value :  2.37328e-07
 Reference value :  2.65108e-07
 Reference value :  2.93003e-07
 Reference value :  3.20738e-07
No. of Data Rows : 68032

  Measurements for Transient Analysis

tphl                =  9.19323e-10 targ=  2.99643e-08 trig=  2.90450e-08
tplh                =  2.09769e-09 targ=  1.11233e-07 trig=  1.09135e-07
i_vdd_avg           =  -1.35799e-06 from=  1.00000e-08 to=  3.30003e-07
power_avg_uw        =  2.61139e+00


Total analysis time (seconds) = 3.04458

Total elapsed time (seconds) = 3.209 

Total DRAM available = 16384.000 MB.
DRAM currently available =  111.078 MB.
Maximum ngspice program size =   24.359 MB.
Current ngspice program size =   24.359 MB.

