
Note: Compatibility modes selected: hs a


Circuit: SKY130 library cell inv_1 A_to_Y

option SCALE: Scale is set to 1e-06 for instance and model parameters
Doing analysis at TEMP = 26.427515 and TNOM = 27.000000

Using KLU as Direct Linear Solver
 Reference value :  1.34908e-07
No. of Data Rows : 68034

  Measurements for Transient Analysis

tphl                =  1.68316e-09 targ=  2.79845e-08 trig=  2.63014e-08
tplh                =  3.00500e-09 targ=  1.03909e-07 trig=  1.00904e-07
i_vdd_avg           =  -2.00459e-06 from=  1.00000e-08 to=  3.30003e-07
power_avg_uw        =  3.29097e+00


Total analysis time (seconds) = 0.294187

Total elapsed time (seconds) = 0.426 

Total DRAM available = 16384.000 MB.
DRAM currently available =  199.781 MB.
Maximum ngspice program size =   27.109 MB.
Current ngspice program size =   27.109 MB.

