
Note: Compatibility modes selected: hs a


Circuit: SKY130 library cell nor2_1 A_to_Y__B=0

option SCALE: Scale is set to 1e-06 for instance and model parameters
Doing analysis at TEMP = 94.759631 and TNOM = 27.000000

Using KLU as Direct Linear Solver
 Reference value :  6.18418e-08
 Reference value :  2.14087e-07
No. of Data Rows : 68032

  Measurements for Transient Analysis

tphl                =  1.01495e-09 targ=  2.92846e-08 trig=  2.82696e-08
tplh                =  3.13326e-09 targ=  1.09942e-07 trig=  1.06809e-07
i_vdd_avg           =  -2.65460e-06 from=  1.00000e-08 to=  3.30001e-07
power_avg_uw        =  5.06606e+00


Total analysis time (seconds) = 0.571275

Total elapsed time (seconds) = 0.721 

Total DRAM available = 16384.000 MB.
DRAM currently available =   75.766 MB.
Maximum ngspice program size =   25.734 MB.
Current ngspice program size =   25.734 MB.

