
Note: Compatibility modes selected: hs a


Circuit: SKY130 library cell inv_4 A_to_Y

option SCALE: Scale is set to 1e-06 for instance and model parameters
Doing analysis at TEMP = 95.228161 and TNOM = 27.000000

Using KLU as Direct Linear Solver
 Reference value :  4.56532e-08
 Reference value :  1.31849e-07
 Reference value :  2.29243e-07
 Reference value :  3.28034e-07
No. of Data Rows : 68032

  Measurements for Transient Analysis

tphl                =  6.54008e-10 targ=  2.88819e-08 trig=  2.82279e-08
tplh                =  1.70246e-09 targ=  1.08386e-07 trig=  1.06684e-07
i_vdd_avg           =  -2.39986e-06 from=  1.00000e-08 to=  3.30004e-07
power_avg_uw        =  4.24931e+00


Total analysis time (seconds) = 0.894743

Total elapsed time (seconds) = 1.029 

Total DRAM available = 16384.000 MB.
DRAM currently available =  107.188 MB.
Maximum ngspice program size =   25.594 MB.
Current ngspice program size =   25.594 MB.

