
Note: Compatibility modes selected: hs a


Circuit: SKY130 library cell nand3_1 A_to_Y__B=1,C=1

option SCALE: Scale is set to 1e-06 for instance and model parameters
Doing analysis at TEMP = -36.086966 and TNOM = 27.000000

Using KLU as Direct Linear Solver
 Reference value :  3.32858e-08
 Reference value :  1.28584e-07
 Reference value :  2.27206e-07
 Reference value :  3.18094e-07
No. of Data Rows : 68034

  Measurements for Transient Analysis

tphl                =  2.65989e-09 targ=  3.06890e-08 trig=  2.80291e-08
tplh                =  4.16181e-09 targ=  1.10249e-07 trig=  1.06087e-07
i_vdd_avg           =  -1.66998e-06 from=  1.00000e-08 to=  3.30004e-07
power_avg_uw        =  2.75483e+00


Total analysis time (seconds) = 0.922071

Total elapsed time (seconds) = 1.086 

Total DRAM available = 16384.000 MB.
DRAM currently available =  133.422 MB.
Maximum ngspice program size =   25.812 MB.
Current ngspice program size =   25.812 MB.

