
Note: Compatibility modes selected: hs a


Circuit: SKY130 library cell mux2_1 A0_to_X__A1=0,S=0

option SCALE: Scale is set to 1e-06 for instance and model parameters
Doing analysis at TEMP = 27.867669 and TNOM = 27.000000

Using KLU as Direct Linear Solver
 Reference value :  1.70214e-08
 Reference value :  7.03610e-08
 Reference value :  1.22194e-07
 Reference value :  1.73234e-07
 Reference value :  2.25126e-07
 Reference value :  2.74424e-07
 Reference value :  3.30729e-07
No. of Data Rows : 68034

  Measurements for Transient Analysis

tplh                =  2.22353e-10 targ=  2.46316e-08 trig=  2.44092e-08
tphl                =  4.06480e-10 targ=  9.56342e-08 trig=  9.52277e-08
i_vdd_avg           =  -7.36215e-08 from=  1.00000e-08 to=  3.30004e-07
power_avg_uw        =  1.20412e-01


Total analysis time (seconds) = 1.66817

Total elapsed time (seconds) = 1.843 

Total DRAM available = 16384.000 MB.
DRAM currently available =  117.859 MB.
Maximum ngspice program size =   28.406 MB.
Current ngspice program size =   28.406 MB.

