
Note: Compatibility modes selected: hs a


Circuit: SKY130 library cell nand2_4 A_to_Y__B=1

option SCALE: Scale is set to 1e-06 for instance and model parameters
Doing analysis at TEMP = 73.493731 and TNOM = 27.000000

Using KLU as Direct Linear Solver
 Reference value :  1.79714e-08
 Reference value :  6.46308e-08
 Reference value :  1.11271e-07
 Reference value :  1.57199e-07
 Reference value :  2.04896e-07
 Reference value :  2.53906e-07
 Reference value :  3.00064e-07
No. of Data Rows : 68034

  Measurements for Transient Analysis

tphl                =  5.46122e-10 targ=  2.89053e-08 trig=  2.83592e-08
tplh                =  1.50115e-09 targ=  1.08579e-07 trig=  1.07077e-07
i_vdd_avg           =  -2.87281e-06 from=  1.00000e-08 to=  3.30004e-07
power_avg_uw        =  5.63037e+00


Total analysis time (seconds) = 1.81766

Total elapsed time (seconds) = 1.966 

Total DRAM available = 16384.000 MB.
DRAM currently available =  128.859 MB.
Maximum ngspice program size =   27.516 MB.
Current ngspice program size =   27.516 MB.

