
Note: Compatibility modes selected: hs a


Circuit: SKY130 library cell oai21_4 A1_to_Y__A2=0,B1=1

option SCALE: Scale is set to 1e-06 for instance and model parameters
Doing analysis at TEMP = 12.177096 and TNOM = 27.000000

Using KLU as Direct Linear Solver
 Reference value :  8.01140e-09
 Reference value :  3.55389e-08
 Reference value :  6.13639e-08
 Reference value :  9.04239e-08
 Reference value :  1.18315e-07
 Reference value :  1.45595e-07
 Reference value :  1.73170e-07
 Reference value :  2.02239e-07
 Reference value :  2.30089e-07
 Reference value :  2.57814e-07
 Reference value :  2.86330e-07
 Reference value :  3.13455e-07
No. of Data Rows : 68030

  Measurements for Transient Analysis

tphl                =  6.09381e-10 targ=  2.88551e-08 trig=  2.82457e-08
tplh                =  2.13503e-09 targ=  1.08872e-07 trig=  1.06737e-07
i_vdd_avg           =  -1.69027e-06 from=  1.00000e-08 to=  3.30000e-07
power_avg_uw        =  3.07162e+00


Total analysis time (seconds) = 3.15091

Total elapsed time (seconds) = 3.325 

Total DRAM available = 16384.000 MB.
DRAM currently available =  196.297 MB.
Maximum ngspice program size =   25.672 MB.
Current ngspice program size =   25.672 MB.

