
Note: Compatibility modes selected: hs a


Circuit: SKY130 library cell nand2_4 A_to_Y__B=1

option SCALE: Scale is set to 1e-06 for instance and model parameters
Doing analysis at TEMP = -0.649782 and TNOM = 27.000000

Using KLU as Direct Linear Solver
 Reference value :  1.83014e-08
 Reference value :  6.25543e-08
 Reference value :  1.12346e-07
 Reference value :  1.62346e-07
 Reference value :  2.10119e-07
 Reference value :  2.56196e-07
 Reference value :  3.01156e-07
No. of Data Rows : 68030

  Measurements for Transient Analysis

tphl                =  1.16239e-10 targ=  2.42247e-08 trig=  2.41084e-08
tplh                =  1.80733e-10 targ=  9.45060e-08 trig=  9.43252e-08
i_vdd_avg           =  -5.29692e-07 from=  1.00000e-08 to=  3.30001e-07
power_avg_uw        =  8.72026e-01


Total analysis time (seconds) = 1.80375

Total elapsed time (seconds) = 1.964 

Total DRAM available = 16384.000 MB.
DRAM currently available =  126.109 MB.
Maximum ngspice program size =   25.703 MB.
Current ngspice program size =   25.703 MB.

