
Note: Compatibility modes selected: hs a


Circuit: SKY130 library cell nand2_1 A_to_Y__B=1

option SCALE: Scale is set to 1e-06 for instance and model parameters
Doing analysis at TEMP = 1.534292 and TNOM = 27.000000

Using KLU as Direct Linear Solver
 Reference value :  6.68858e-08
 Reference value :  2.28411e-07
No. of Data Rows : 68034

  Measurements for Transient Analysis

tphl                =  2.14357e-09 targ=  2.82827e-08 trig=  2.61391e-08
tplh                =  3.01587e-09 targ=  1.03433e-07 trig=  1.00417e-07
i_vdd_avg           =  -2.49653e-06 from=  1.00000e-08 to=  3.30004e-07
power_avg_uw        =  4.82439e+00


Total analysis time (seconds) = 0.539512

Total elapsed time (seconds) = 0.691 

Total DRAM available = 16384.000 MB.
DRAM currently available =  126.391 MB.
Maximum ngspice program size =   26.000 MB.
Current ngspice program size =   26.000 MB.

