
Note: Compatibility modes selected: hs a


Circuit: SKY130 library cell aoi21_4 A1_to_Y__A2=1,B1=0

option SCALE: Scale is set to 1e-06 for instance and model parameters
Doing analysis at TEMP = 109.368990 and TNOM = 27.000000

Using KLU as Direct Linear Solver
 Reference value :  7.61640e-09
 Reference value :  3.55532e-08
 Reference value :  6.31732e-08
 Reference value :  9.16782e-08
 Reference value :  1.20294e-07
 Reference value :  1.46904e-07
 Reference value :  1.76379e-07
 Reference value :  2.04948e-07
 Reference value :  2.33868e-07
 Reference value :  2.62633e-07
 Reference value :  2.91154e-07
 Reference value :  3.18454e-07
No. of Data Rows : 68032

  Measurements for Transient Analysis

tphl                =  1.83202e-10 targ=  2.98710e-08 trig=  2.96878e-08
tplh                =  1.22979e-09 targ=  1.12293e-07 trig=  1.11064e-07
i_vdd_avg           =  -1.43233e-06 from=  1.00000e-08 to=  3.30004e-07
power_avg_uw        =  2.56437e+00


Total analysis time (seconds) = 3.06916

Total elapsed time (seconds) = 3.250 

Total DRAM available = 16384.000 MB.
DRAM currently available =  112.656 MB.
Maximum ngspice program size =   27.516 MB.
Current ngspice program size =   27.516 MB.

