
Note: Compatibility modes selected: hs a


Circuit: SKY130 library cell aoi21_1 A1_to_Y__A2=1,B1=0

option SCALE: Scale is set to 1e-06 for instance and model parameters
Doing analysis at TEMP = 82.795356 and TNOM = 27.000000

Using KLU as Direct Linear Solver
 Reference value :  3.75484e-08
 Reference value :  1.38434e-07
 Reference value :  2.36993e-07
No. of Data Rows : 68032

  Measurements for Transient Analysis

tphl                =  2.21104e-09 targ=  3.14815e-08 trig=  2.92704e-08
tplh                =  4.09732e-09 targ=  1.13909e-07 trig=  1.09811e-07
i_vdd_avg           =  -1.93572e-06 from=  1.00000e-08 to=  3.30004e-07
power_avg_uw        =  3.54623e+00


Total analysis time (seconds) = 0.845917

Total elapsed time (seconds) = 1.003 

Total DRAM available = 16384.000 MB.
DRAM currently available =  128.516 MB.
Maximum ngspice program size =   25.000 MB.
Current ngspice program size =   25.000 MB.

