
Note: Compatibility modes selected: hs a


Circuit: SKY130 library cell nand3_4 A_to_Y__B=1,C=1

option SCALE: Scale is set to 1e-06 for instance and model parameters
Doing analysis at TEMP = 122.155160 and TNOM = 27.000000

Using KLU as Direct Linear Solver
 Reference value :  5.54640e-09
 Reference value :  3.33518e-08
 Reference value :  6.05468e-08
 Reference value :  8.54668e-08
 Reference value :  1.13196e-07
 Reference value :  1.41421e-07
 Reference value :  1.68506e-07
 Reference value :  1.96692e-07
 Reference value :  2.24402e-07
 Reference value :  2.53007e-07
 Reference value :  2.81001e-07
 Reference value :  3.06081e-07
 Reference value :  3.34886e-07
No. of Data Rows : 68032

  Measurements for Transient Analysis

tphl                =  5.43861e-10 targ=  2.64960e-08 trig=  2.59521e-08
tplh                =  8.26270e-10 targ=  1.00683e-07 trig=  9.98564e-08
i_vdd_avg           =  -2.63045e-06 from=  1.00000e-08 to=  3.30001e-07
power_avg_uw        =  4.69767e+00


Total analysis time (seconds) = 3.16485

Total elapsed time (seconds) = 3.352 

Total DRAM available = 16384.000 MB.
DRAM currently available =  176.062 MB.
Maximum ngspice program size =   29.828 MB.
Current ngspice program size =   29.828 MB.

