
Note: Compatibility modes selected: hs a


Circuit: SKY130 library cell nor2_4 A_to_Y__B=0

option SCALE: Scale is set to 1e-06 for instance and model parameters
Doing analysis at TEMP = 24.424414 and TNOM = 27.000000

Using KLU as Direct Linear Solver
 Reference value :  1.38064e-08
 Reference value :  5.77223e-08
 Reference value :  1.04182e-07
 Reference value :  1.49112e-07
 Reference value :  1.93672e-07
 Reference value :  2.39727e-07
 Reference value :  2.81907e-07
 Reference value :  3.29657e-07
No. of Data Rows : 68032

  Measurements for Transient Analysis

tphl                =  8.66989e-11 targ=  2.47991e-08 trig=  2.47124e-08
tplh                =  3.56717e-10 targ=  9.64939e-08 trig=  9.61372e-08
i_vdd_avg           =  -5.19426e-07 from=  1.00000e-08 to=  3.30002e-07
power_avg_uw        =  1.02363e+00


Total analysis time (seconds) = 1.92041

Total elapsed time (seconds) = 2.081 

Total DRAM available = 16384.000 MB.
DRAM currently available =  138.453 MB.
Maximum ngspice program size =   28.828 MB.
Current ngspice program size =   28.828 MB.

