
Note: Compatibility modes selected: hs a


Circuit: SKY130 library cell mux2_4 A0_to_X__A1=0,S=0

option SCALE: Scale is set to 1e-06 for instance and model parameters
Doing analysis at TEMP = 114.606250 and TNOM = 27.000000

Using KLU as Direct Linear Solver
 Reference value :  1.00464e-08
 Reference value :  4.68347e-08
 Reference value :  8.48047e-08
 Reference value :  1.23577e-07
 Reference value :  1.59077e-07
 Reference value :  1.95575e-07
 Reference value :  2.30770e-07
 Reference value :  2.66175e-07
 Reference value :  3.02572e-07
 Reference value :  3.36592e-07
No. of Data Rows : 68030

  Measurements for Transient Analysis

tplh                =  7.19847e-10 targ=  2.83884e-08 trig=  2.76686e-08
tphl                =  1.22502e-09 targ=  1.06231e-07 trig=  1.05006e-07
i_vdd_avg           =  -6.28975e-07 from=  1.00000e-08 to=  3.30002e-07
power_avg_uw        =  1.19801e+00


Total analysis time (seconds) = 2.40771

Total elapsed time (seconds) = 2.592 

Total DRAM available = 16384.000 MB.
DRAM currently available =  196.188 MB.
Maximum ngspice program size =   27.688 MB.
Current ngspice program size =   27.688 MB.

