
Note: Compatibility modes selected: hs a


Circuit: SKY130 library cell mux2_1 A0_to_X__A1=0,S=0

option SCALE: Scale is set to 1e-06 for instance and model parameters
Doing analysis at TEMP = 111.093530 and TNOM = 27.000000

Using KLU as Direct Linear Solver
 Reference value :  1.77264e-08
 Reference value :  6.84486e-08
 Reference value :  1.21540e-07
 Reference value :  1.72555e-07
 Reference value :  2.25999e-07
 Reference value :  2.78475e-07
 Reference value :  3.31400e-07
No. of Data Rows : 68032

  Measurements for Transient Analysis

tplh                =  7.90447e-11 targ=  2.97571e-08 trig=  2.96781e-08
tphl                =  1.49961e-09 targ=  1.12534e-07 trig=  1.11034e-07
i_vdd_avg           =  -9.92371e-07 from=  1.00000e-08 to=  3.30005e-07
power_avg_uw        =  1.69723e+00


Total analysis time (seconds) = 1.6738

Total elapsed time (seconds) = 1.848 

Total DRAM available = 16384.000 MB.
DRAM currently available =  171.391 MB.
Maximum ngspice program size =   25.250 MB.
Current ngspice program size =   25.250 MB.

