
Note: Compatibility modes selected: hs a


Circuit: SKY130 library cell nand2_4 A_to_Y__B=1

option SCALE: Scale is set to 1e-06 for instance and model parameters
Doing analysis at TEMP = 113.336230 and TNOM = 27.000000

Using KLU as Direct Linear Solver
 Reference value :  1.68914e-08
 Reference value :  6.12506e-08
 Reference value :  1.09886e-07
 Reference value :  1.58239e-07
 Reference value :  2.03351e-07
 Reference value :  2.52331e-07
 Reference value :  2.97924e-07
No. of Data Rows : 68034

  Measurements for Transient Analysis

tphl                =  5.65114e-10 targ=  2.99392e-08 trig=  2.93741e-08
tplh                =  1.37804e-09 targ=  1.11500e-07 trig=  1.10122e-07
i_vdd_avg           =  -1.51384e-06 from=  1.00000e-08 to=  3.30004e-07
power_avg_uw        =  2.57699e+00


Total analysis time (seconds) = 1.8496

Total elapsed time (seconds) = 2.008 

Total DRAM available = 16384.000 MB.
DRAM currently available =  117.984 MB.
Maximum ngspice program size =   26.438 MB.
Current ngspice program size =   26.438 MB.

