
Note: Compatibility modes selected: hs a


Circuit: SKY130 library cell nand3_1 A_to_Y__B=1,C=1

option SCALE: Scale is set to 1e-06 for instance and model parameters
Doing analysis at TEMP = 56.685911 and TNOM = 27.000000

Using KLU as Direct Linear Solver
 Reference value :  3.07336e-08
 Reference value :  1.28700e-07
 Reference value :  2.25984e-07
 Reference value :  3.20890e-07
No. of Data Rows : 68032

  Measurements for Transient Analysis

tphl                =  3.93563e-10 targ=  2.73966e-08 trig=  2.70030e-08
tplh                =  9.99568e-10 targ=  1.04009e-07 trig=  1.03009e-07
i_vdd_avg           =  -1.93550e-07 from=  1.00000e-08 to=  3.30005e-07
power_avg_uw        =  3.35278e-01


Total analysis time (seconds) = 0.895863

Total elapsed time (seconds) = 1.064 

Total DRAM available = 16384.000 MB.
DRAM currently available =  179.109 MB.
Maximum ngspice program size =   25.188 MB.
Current ngspice program size =   25.188 MB.

