
Note: Compatibility modes selected: hs a


Circuit: SKY130 library cell nand3_1 A_to_Y__B=1,C=1

option SCALE: Scale is set to 1e-06 for instance and model parameters
Doing analysis at TEMP = 52.707213 and TNOM = 27.000000

Using KLU as Direct Linear Solver
 Reference value :  3.51288e-08
 Reference value :  1.32010e-07
 Reference value :  2.29229e-07
 Reference value :  3.27705e-07
No. of Data Rows : 68030

  Measurements for Transient Analysis

tphl                =  1.28563e-09 targ=  2.75638e-08 trig=  2.62782e-08
tplh                =  1.57548e-09 targ=  1.02410e-07 trig=  1.00834e-07
i_vdd_avg           =  -6.27957e-07 from=  1.00000e-08 to=  3.30000e-07
power_avg_uw        =  1.20784e+00


Total analysis time (seconds) = 0.888319

Total elapsed time (seconds) = 1.053 

Total DRAM available = 16384.000 MB.
DRAM currently available =  259.359 MB.
Maximum ngspice program size =   24.781 MB.
Current ngspice program size =   24.781 MB.

