
Note: Compatibility modes selected: hs a


Circuit: SKY130 library cell nand3_1 A_to_Y__B=1,C=1

option SCALE: Scale is set to 1e-06 for instance and model parameters
Doing analysis at TEMP = -17.575463 and TNOM = 27.000000

Using KLU as Direct Linear Solver
 Reference value :  3.33325e-08
 Reference value :  1.28569e-07
 Reference value :  2.27896e-07
 Reference value :  3.20214e-07
No. of Data Rows : 68034

  Measurements for Transient Analysis

tphl                =  1.97030e-09 targ=  3.15569e-08 trig=  2.95866e-08
tplh                =  3.75766e-09 targ=  1.14517e-07 trig=  1.10760e-07
i_vdd_avg           =  -1.30812e-06 from=  1.00000e-08 to=  3.30004e-07
power_avg_uw        =  2.37762e+00


Total analysis time (seconds) = 0.91048

Total elapsed time (seconds) = 1.071 

Total DRAM available = 16384.000 MB.
DRAM currently available =  164.547 MB.
Maximum ngspice program size =   23.688 MB.
Current ngspice program size =   23.688 MB.

