
Note: Compatibility modes selected: hs a


Circuit: SKY130 library cell oai21_1 A1_to_Y__A2=0,B1=1

option SCALE: Scale is set to 1e-06 for instance and model parameters
Doing analysis at TEMP = 103.532100 and TNOM = 27.000000

Using KLU as Direct Linear Solver
 Reference value :  3.40209e-08
 Reference value :  1.31369e-07
 Reference value :  2.30666e-07
 Reference value :  3.24314e-07
No. of Data Rows : 68034

  Measurements for Transient Analysis

tphl                =  1.99190e-09 targ=  2.93686e-08 trig=  2.73767e-08
tplh                =  3.29480e-09 targ=  1.07425e-07 trig=  1.04130e-07
i_vdd_avg           =  -1.41461e-06 from=  1.00000e-08 to=  3.30004e-07
power_avg_uw        =  2.67884e+00


Total analysis time (seconds) = 0.89707

Total elapsed time (seconds) = 1.056 

Total DRAM available = 16384.000 MB.
DRAM currently available =   90.500 MB.
Maximum ngspice program size =   26.984 MB.
Current ngspice program size =   26.984 MB.

