
Note: Compatibility modes selected: hs a


Circuit: SKY130 library cell mux2_4 A0_to_X__A1=0,S=0

option SCALE: Scale is set to 1e-06 for instance and model parameters
Doing analysis at TEMP = -36.725437 and TNOM = 27.000000

Using KLU as Direct Linear Solver
 Reference value :  9.67640e-09
 Reference value :  4.38903e-08
 Reference value :  8.06353e-08
 Reference value :  1.18718e-07
 Reference value :  1.55223e-07
 Reference value :  1.91113e-07
 Reference value :  2.26060e-07
 Reference value :  2.64255e-07
 Reference value :  2.98308e-07
 Reference value :  3.32113e-07
No. of Data Rows : 68034

  Measurements for Transient Analysis

tplh                =  2.97965e-10 targ=  2.97993e-08 trig=  2.95014e-08
tphl                =  2.00613e-09 targ=  1.12510e-07 trig=  1.10504e-07
i_vdd_avg           =  -1.30311e-06 from=  1.00000e-08 to=  3.30003e-07
power_avg_uw        =  2.42039e+00


Total analysis time (seconds) = 2.41875

Total elapsed time (seconds) = 2.596 

Total DRAM available = 16384.000 MB.
DRAM currently available =  134.594 MB.
Maximum ngspice program size =   27.500 MB.
Current ngspice program size =   27.500 MB.

