
Note: Compatibility modes selected: hs a


Circuit: SKY130 library cell mux2_4 A0_to_X__A1=0,S=0

option SCALE: Scale is set to 1e-06 for instance and model parameters
Doing analysis at TEMP = 106.528460 and TNOM = 27.000000

Using KLU as Direct Linear Solver
 Reference value :  1.06664e-08
 Reference value :  4.57092e-08
 Reference value :  8.12292e-08
 Reference value :  1.18786e-07
 Reference value :  1.53546e-07
 Reference value :  1.89359e-07
 Reference value :  2.25829e-07
 Reference value :  2.62161e-07
 Reference value :  2.97086e-07
 Reference value :  3.33131e-07
No. of Data Rows : 68030

  Measurements for Transient Analysis

tplh                =  2.53011e-10 targ=  2.47313e-08 trig=  2.44783e-08
tphl                =  3.89557e-10 targ=  9.58246e-08 trig=  9.54350e-08
i_vdd_avg           =  -8.67311e-07 from=  1.00000e-08 to=  3.30001e-07
power_avg_uw        =  1.47104e+00


Total analysis time (seconds) = 2.41302

Total elapsed time (seconds) = 2.583 

Total DRAM available = 16384.000 MB.
DRAM currently available =  112.469 MB.
Maximum ngspice program size =   28.562 MB.
Current ngspice program size =   28.562 MB.

