
Note: Compatibility modes selected: hs a


Circuit: SKY130 library cell xor2_1 A_to_X__B=0

option SCALE: Scale is set to 1e-06 for instance and model parameters
Doing analysis at TEMP = 100.677210 and TNOM = 27.000000

Using KLU as Direct Linear Solver
 Reference value :  2.27564e-08
 Reference value :  8.97989e-08
 Reference value :  1.59600e-07
 Reference value :  2.25674e-07
 Reference value :  2.92980e-07
No. of Data Rows : 68030

  Measurements for Transient Analysis

tplh                =  2.47419e-09 targ=  3.04649e-08 trig=  2.79907e-08
tphl                =  1.47313e-09 targ=  1.07445e-07 trig=  1.05972e-07
i_vdd_avg           =  -2.13830e-06 from=  1.00000e-08 to=  3.30000e-07
power_avg_uw        =  3.68607e+00


Total analysis time (seconds) = 1.26853

Total elapsed time (seconds) = 1.432 

Total DRAM available = 16384.000 MB.
DRAM currently available =  166.766 MB.
Maximum ngspice program size =   25.609 MB.
Current ngspice program size =   25.609 MB.

