
Note: Compatibility modes selected: hs a


Circuit: SKY130 library cell nand2_4 A_to_Y__B=1

option SCALE: Scale is set to 1e-06 for instance and model parameters
Doing analysis at TEMP = 119.586800 and TNOM = 27.000000

Using KLU as Direct Linear Solver
 Reference value :  1.68814e-08
 Reference value :  6.54583e-08
 Reference value :  1.12508e-07
 Reference value :  1.61519e-07
 Reference value :  2.09563e-07
 Reference value :  2.55033e-07
 Reference value :  3.03069e-07
No. of Data Rows : 68032

  Measurements for Transient Analysis

tphl                =  2.20018e-10 targ=  2.91454e-08 trig=  2.89254e-08
tplh                =  1.23556e-09 targ=  1.10012e-07 trig=  1.08776e-07
i_vdd_avg           =  -3.68287e-06 from=  1.00000e-08 to=  3.30004e-07
power_avg_uw        =  6.47674e+00


Total analysis time (seconds) = 1.80326

Total elapsed time (seconds) = 1.959 

Total DRAM available = 16384.000 MB.
DRAM currently available =  128.859 MB.
Maximum ngspice program size =   25.797 MB.
Current ngspice program size =   25.797 MB.

