
Note: Compatibility modes selected: hs a


Circuit: SKY130 library cell nand3_1 A_to_Y__B=1,C=1

option SCALE: Scale is set to 1e-06 for instance and model parameters
Doing analysis at TEMP = 30.637535 and TNOM = 27.000000

Using KLU as Direct Linear Solver
 Reference value :  3.53811e-08
 Reference value :  1.37065e-07
 Reference value :  2.29966e-07
 Reference value :  3.25465e-07
No. of Data Rows : 68034

  Measurements for Transient Analysis

tphl                =  6.88949e-10 targ=  2.71007e-08 trig=  2.64118e-08
tplh                =  1.41473e-09 targ=  1.02650e-07 trig=  1.01235e-07
i_vdd_avg           =  -8.85098e-07 from=  1.00000e-08 to=  3.30005e-07
power_avg_uw        =  1.59910e+00


Total analysis time (seconds) = 0.894559

Total elapsed time (seconds) = 1.061 

Total DRAM available = 16384.000 MB.
DRAM currently available =  139.750 MB.
Maximum ngspice program size =   27.094 MB.
Current ngspice program size =   27.094 MB.

