
Note: Compatibility modes selected: hs a


Circuit: SKY130 library cell nand3_1 A_to_Y__B=1,C=1

option SCALE: Scale is set to 1e-06 for instance and model parameters
Doing analysis at TEMP = 36.661240 and TNOM = 27.000000

Using KLU as Direct Linear Solver
 Reference value :  2.65128e-08
 Reference value :  1.23818e-07
 Reference value :  2.18238e-07
 Reference value :  3.17413e-07
No. of Data Rows : 68032

  Measurements for Transient Analysis

tphl                =  2.90577e-10 targ=  2.49307e-08 trig=  2.46401e-08
tplh                =  4.76744e-10 targ=  9.63971e-08 trig=  9.59204e-08
i_vdd_avg           =  -3.58272e-07 from=  1.00000e-08 to=  3.30003e-07
power_avg_uw        =  6.36597e-01


Total analysis time (seconds) = 0.897706

Total elapsed time (seconds) = 1.088 

Total DRAM available = 16384.000 MB.
DRAM currently available =  138.453 MB.
Maximum ngspice program size =   26.266 MB.
Current ngspice program size =   26.266 MB.

