
Note: Compatibility modes selected: hs a


Circuit: SKY130 library cell nand3_4 A_to_Y__B=1,C=1

option SCALE: Scale is set to 1e-06 for instance and model parameters
Doing analysis at TEMP = 74.252423 and TNOM = 27.000000

Using KLU as Direct Linear Solver
 Reference value :  7.73640e-09
 Reference value :  3.68232e-08
 Reference value :  6.44782e-08
 Reference value :  9.27432e-08
 Reference value :  1.20194e-07
 Reference value :  1.48369e-07
 Reference value :  1.75369e-07
 Reference value :  2.02888e-07
 Reference value :  2.30333e-07
 Reference value :  2.57789e-07
 Reference value :  2.85279e-07
 Reference value :  3.13754e-07
No. of Data Rows : 68032

  Measurements for Transient Analysis

tphl                =  1.19705e-10 targ=  2.49376e-08 trig=  2.48179e-08
tplh                =  2.60045e-10 targ=  9.67136e-08 trig=  9.64536e-08
i_vdd_avg           =  -4.21584e-07 from=  1.00000e-08 to=  3.30004e-07
power_avg_uw        =  8.06799e-01


Total analysis time (seconds) = 3.08695

Total elapsed time (seconds) = 3.256 

Total DRAM available = 16384.000 MB.
DRAM currently available =  125.078 MB.
Maximum ngspice program size =   26.172 MB.
Current ngspice program size =   26.172 MB.

