
Note: Compatibility modes selected: hs a


Circuit: SKY130 library cell xor2_4 A_to_X__B=0

option SCALE: Scale is set to 1e-06 for instance and model parameters
Doing analysis at TEMP = 85.295804 and TNOM = 27.000000

Using KLU as Direct Linear Solver
 Reference value :  3.36140e-09
 Reference value :  2.16314e-08
 Reference value :  3.74684e-08
 Reference value :  5.54484e-08
 Reference value :  7.19134e-08
 Reference value :  8.91784e-08
 Reference value :  1.07019e-07
 Reference value :  1.24389e-07
 Reference value :  1.41949e-07
 Reference value :  1.59529e-07
 Reference value :  1.79049e-07
 Reference value :  1.96803e-07
 Reference value :  2.13693e-07
 Reference value :  2.30223e-07
 Reference value :  2.48098e-07
 Reference value :  2.65264e-07
 Reference value :  2.82964e-07
 Reference value :  2.99804e-07
 Reference value :  3.16799e-07
 Reference value :  3.34089e-07
No. of Data Rows : 68032

  Measurements for Transient Analysis

tplh                =  7.21510e-10 targ=  2.54320e-08 trig=  2.47105e-08
tphl                =  4.52731e-10 targ=  9.65841e-08 trig=  9.61314e-08
i_vdd_avg           =  -2.50443e-06 from=  1.00000e-08 to=  3.30004e-07
power_avg_uw        =  4.50645e+00


Total analysis time (seconds) = 4.94717

Total elapsed time (seconds) = 5.145 

Total DRAM available = 16384.000 MB.
DRAM currently available =  105.984 MB.
Maximum ngspice program size =   30.031 MB.
Current ngspice program size =   30.031 MB.

