
Note: Compatibility modes selected: hs a


Circuit: SKY130 library cell xor2_1 A_to_X__B=0

option SCALE: Scale is set to 1e-06 for instance and model parameters
Doing analysis at TEMP = -38.119451 and TNOM = 27.000000

Using KLU as Direct Linear Solver
 Reference value :  1.97714e-08
 Reference value :  8.85374e-08
 Reference value :  1.56762e-07
 Reference value :  2.26437e-07
 Reference value :  2.93122e-07
No. of Data Rows : 68032

  Measurements for Transient Analysis

tplh                =  2.06142e-09 targ=  2.95464e-08 trig=  2.74850e-08
tphl                =  1.73866e-09 targ=  1.06194e-07 trig=  1.04455e-07
i_vdd_avg           =  -9.99654e-07 from=  1.00000e-08 to=  3.30002e-07
power_avg_uw        =  1.84672e+00


Total analysis time (seconds) = 1.27373

Total elapsed time (seconds) = 1.432 

Total DRAM available = 16384.000 MB.
DRAM currently available =  130.062 MB.
Maximum ngspice program size =   25.984 MB.
Current ngspice program size =   25.984 MB.

