
Note: Compatibility modes selected: hs a


Circuit: SKY130 library cell nand2_1 A_to_Y__B=1

option SCALE: Scale is set to 1e-06 for instance and model parameters
Doing analysis at TEMP = 122.764680 and TNOM = 27.000000

Using KLU as Direct Linear Solver
 Reference value :  7.06449e-08
 Reference value :  2.17145e-07
No. of Data Rows : 68030

  Measurements for Transient Analysis

tphl                =  2.57148e-09 targ=  2.97002e-08 trig=  2.71287e-08
tplh                =  2.84396e-09 targ=  1.06230e-07 trig=  1.03386e-07
i_vdd_avg           =  -1.73836e-06 from=  1.00000e-08 to=  3.30002e-07
power_avg_uw        =  3.21874e+00


Total analysis time (seconds) = 0.564694

Total elapsed time (seconds) = 0.701 

Total DRAM available = 16384.000 MB.
DRAM currently available =   91.594 MB.
Maximum ngspice program size =   25.984 MB.
Current ngspice program size =   25.984 MB.

