
Note: Compatibility modes selected: hs a


Circuit: SKY130 library cell nand2_4 A_to_Y__B=1

option SCALE: Scale is set to 1e-06 for instance and model parameters
Doing analysis at TEMP = 92.291792 and TNOM = 27.000000

Using KLU as Direct Linear Solver
 Reference value :  1.74314e-08
 Reference value :  6.19947e-08
 Reference value :  1.06827e-07
 Reference value :  1.55052e-07
 Reference value :  1.99855e-07
 Reference value :  2.49145e-07
 Reference value :  2.97282e-07
No. of Data Rows : 68030

  Measurements for Transient Analysis

tphl                =  9.29398e-10 targ=  2.63130e-08 trig=  2.53836e-08
tplh                =  1.13300e-09 targ=  9.92838e-08 trig=  9.81508e-08
i_vdd_avg           =  -1.22965e-06 from=  1.00000e-08 to=  3.30002e-07
power_avg_uw        =  2.00563e+00


Total analysis time (seconds) = 1.8433

Total elapsed time (seconds) = 2.001 

Total DRAM available = 16384.000 MB.
DRAM currently available =  107.953 MB.
Maximum ngspice program size =   26.484 MB.
Current ngspice program size =   26.484 MB.

