
Note: Compatibility modes selected: hs a


Circuit: SKY130 library cell xor2_4 A_to_X__B=0

option SCALE: Scale is set to 1e-06 for instance and model parameters
Doing analysis at TEMP = 93.819896 and TNOM = 27.000000

Using KLU as Direct Linear Solver
 Reference value :  4.39140e-09
 Reference value :  2.17064e-08
 Reference value :  3.95148e-08
 Reference value :  5.67548e-08
 Reference value :  7.46398e-08
 Reference value :  9.28698e-08
 Reference value :  1.10492e-07
 Reference value :  1.26937e-07
 Reference value :  1.43967e-07
 Reference value :  1.62387e-07
 Reference value :  1.79522e-07
 Reference value :  1.95775e-07
 Reference value :  2.13050e-07
 Reference value :  2.30695e-07
 Reference value :  2.47445e-07
 Reference value :  2.64660e-07
 Reference value :  2.82707e-07
 Reference value :  3.01022e-07
 Reference value :  3.17967e-07
 Reference value :  3.35367e-07
No. of Data Rows : 68030

  Measurements for Transient Analysis

tplh                =  7.99124e-10 targ=  2.86328e-08 trig=  2.78337e-08
tphl                =  9.80469e-10 targ=  1.06481e-07 trig=  1.05501e-07
i_vdd_avg           =  -2.82317e-06 from=  1.00000e-08 to=  3.30002e-07
power_avg_uw        =  5.55669e+00


Total analysis time (seconds) = 4.95094

Total elapsed time (seconds) = 5.143 

Total DRAM available = 16384.000 MB.
DRAM currently available =  104.891 MB.
Maximum ngspice program size =   27.109 MB.
Current ngspice program size =   27.109 MB.

