
Note: Compatibility modes selected: hs a


Circuit: SKY130 library cell aoi21_1 A1_to_Y__A2=1,B1=0

option SCALE: Scale is set to 1e-06 for instance and model parameters
Doing analysis at TEMP = 70.561507 and TNOM = 27.000000

Using KLU as Direct Linear Solver
 Reference value :  3.92581e-08
 Reference value :  1.43189e-07
 Reference value :  2.34953e-07
 Reference value :  3.38724e-07
No. of Data Rows : 68032

  Measurements for Transient Analysis

tphl                =  7.98482e-10 targ=  2.52388e-08 trig=  2.44403e-08
tplh                =  1.80448e-09 targ=  9.71254e-08 trig=  9.53209e-08
i_vdd_avg           =  -2.38580e-06 from=  1.00000e-08 to=  3.30004e-07
power_avg_uw        =  4.63037e+00


Total analysis time (seconds) = 0.908135

Total elapsed time (seconds) = 1.059 

Total DRAM available = 16384.000 MB.
DRAM currently available =  128.547 MB.
Maximum ngspice program size =   26.234 MB.
Current ngspice program size =   26.234 MB.

