
Note: Compatibility modes selected: hs a


Circuit: SKY130 library cell mux2_1 A0_to_X__A1=0,S=0

option SCALE: Scale is set to 1e-06 for instance and model parameters
Doing analysis at TEMP = 73.683409 and TNOM = 27.000000

Using KLU as Direct Linear Solver
 Reference value :  1.18014e-08
 Reference value :  5.90201e-08
 Reference value :  1.10625e-07
 Reference value :  1.65263e-07
 Reference value :  2.16920e-07
 Reference value :  2.70880e-07
 Reference value :  3.20673e-07
No. of Data Rows : 68034

  Measurements for Transient Analysis

tplh                =  2.76984e-10 targ=  2.92333e-08 trig=  2.89563e-08
tphl                =  1.53572e-09 targ=  1.10405e-07 trig=  1.08869e-07
i_vdd_avg           =  -1.97693e-07 from=  1.00000e-08 to=  3.30003e-07
power_avg_uw        =  3.86345e-01


Total analysis time (seconds) = 1.70747

Total elapsed time (seconds) = 1.910 

Total DRAM available = 16384.000 MB.
DRAM currently available =  163.234 MB.
Maximum ngspice program size =   28.172 MB.
Current ngspice program size =   28.172 MB.

