
Note: Compatibility modes selected: hs a


Circuit: SKY130 library cell mux2_4 A0_to_X__A1=0,S=0

option SCALE: Scale is set to 1e-06 for instance and model parameters
Doing analysis at TEMP = 59.180708 and TNOM = 27.000000

Using KLU as Direct Linear Solver
 Reference value :  1.03264e-08
 Reference value :  4.50884e-08
 Reference value :  8.36784e-08
 Reference value :  1.18519e-07
 Reference value :  1.54954e-07
 Reference value :  1.90933e-07
 Reference value :  2.26493e-07
 Reference value :  2.63508e-07
 Reference value :  3.00479e-07
 Reference value :  3.36404e-07
No. of Data Rows : 68032

  Measurements for Transient Analysis

tplh                =  9.33184e-11 targ=  2.87688e-08 trig=  2.86755e-08
tphl                =  1.26136e-09 targ=  1.09288e-07 trig=  1.08026e-07
i_vdd_avg           =  -6.82516e-07 from=  1.00000e-08 to=  3.30004e-07
power_avg_uw        =  1.30993e+00


Total analysis time (seconds) = 2.39688

Total elapsed time (seconds) = 2.565 

Total DRAM available = 16384.000 MB.
DRAM currently available =  214.609 MB.
Maximum ngspice program size =   26.609 MB.
Current ngspice program size =   26.609 MB.

