
Note: Compatibility modes selected: hs a


Circuit: SKY130 library cell oai21_4 A1_to_Y__A2=0,B1=1

option SCALE: Scale is set to 1e-06 for instance and model parameters
Doing analysis at TEMP = 116.593470 and TNOM = 27.000000

Using KLU as Direct Linear Solver
 Reference value :  8.89640e-09
 Reference value :  3.79017e-08
 Reference value :  6.34267e-08
 Reference value :  9.18667e-08
 Reference value :  1.19466e-07
 Reference value :  1.47591e-07
 Reference value :  1.75591e-07
 Reference value :  2.04677e-07
 Reference value :  2.32297e-07
 Reference value :  2.60272e-07
 Reference value :  2.88156e-07
 Reference value :  3.15856e-07
No. of Data Rows : 68032

  Measurements for Transient Analysis

tphl                =  5.14552e-10 targ=  2.81617e-08 trig=  2.76471e-08
tplh                =  1.34210e-09 targ=  1.06283e-07 trig=  1.04941e-07
i_vdd_avg           =  -1.72557e-06 from=  1.00000e-08 to=  3.30001e-07
power_avg_uw        =  3.10314e+00


Total analysis time (seconds) = 3.07544

Total elapsed time (seconds) = 3.246 

Total DRAM available = 16384.000 MB.
DRAM currently available =  135.016 MB.
Maximum ngspice program size =   30.094 MB.
Current ngspice program size =   30.094 MB.

