
Note: Compatibility modes selected: hs a


Circuit: SKY130 library cell mux2_4 A0_to_X__A1=0,S=0

option SCALE: Scale is set to 1e-06 for instance and model parameters
Doing analysis at TEMP = -29.150706 and TNOM = 27.000000

Using KLU as Direct Linear Solver
 Reference value :  9.00140e-09
 Reference value :  4.33924e-08
 Reference value :  8.37174e-08
 Reference value :  1.19662e-07
 Reference value :  1.56692e-07
 Reference value :  1.91098e-07
 Reference value :  2.29252e-07
 Reference value :  2.65207e-07
 Reference value :  3.00892e-07
 Reference value :  3.34152e-07
No. of Data Rows : 68032

  Measurements for Transient Analysis

tplh                =  1.23778e-09 targ=  3.11977e-08 trig=  2.99600e-08
tphl                =  2.77723e-09 targ=  1.14657e-07 trig=  1.11880e-07
i_vdd_avg           =  -2.42967e-06 from=  1.00000e-08 to=  3.30002e-07
power_avg_uw        =  4.59696e+00


Total analysis time (seconds) = 2.39053

Total elapsed time (seconds) = 2.569 

Total DRAM available = 16384.000 MB.
DRAM currently available =  161.641 MB.
Maximum ngspice program size =   26.781 MB.
Current ngspice program size =   26.781 MB.

