
Note: Compatibility modes selected: hs a


Circuit: SKY130 library cell inv_4 A_to_Y

option SCALE: Scale is set to 1e-06 for instance and model parameters
Doing analysis at TEMP = 55.778560 and TNOM = 27.000000

Using KLU as Direct Linear Solver
 Reference value :  4.38905e-08
 Reference value :  1.36958e-07
 Reference value :  2.27540e-07
 Reference value :  3.28733e-07
No. of Data Rows : 68034

  Measurements for Transient Analysis

tphl                =  5.86689e-10 targ=  2.54007e-08 trig=  2.48140e-08
tplh                =  9.19664e-10 targ=  9.73616e-08 trig=  9.64420e-08
i_vdd_avg           =  -2.36483e-06 from=  1.00000e-08 to=  3.30003e-07
power_avg_uw        =  4.36507e+00


Total analysis time (seconds) = 0.891015

Total elapsed time (seconds) = 1.032 

Total DRAM available = 16384.000 MB.
DRAM currently available =  124.984 MB.
Maximum ngspice program size =   25.031 MB.
Current ngspice program size =   25.031 MB.

