
Note: Compatibility modes selected: hs a


Circuit: SKY130 library cell aoi21_4 A1_to_Y__A2=1,B1=0

option SCALE: Scale is set to 1e-06 for instance and model parameters
Doing analysis at TEMP = 12.079093 and TNOM = 27.000000

Using KLU as Direct Linear Solver
 Reference value :  7.40140e-09
 Reference value :  3.62190e-08
 Reference value :  6.50790e-08
 Reference value :  9.24290e-08
 Reference value :  1.19721e-07
 Reference value :  1.47361e-07
 Reference value :  1.77236e-07
 Reference value :  2.04669e-07
 Reference value :  2.32794e-07
 Reference value :  2.59916e-07
 Reference value :  2.88461e-07
 Reference value :  3.17536e-07
No. of Data Rows : 68030

  Measurements for Transient Analysis

tphl                =  2.18931e-10 targ=  2.50997e-08 trig=  2.48808e-08
tplh                =  4.67818e-10 targ=  9.71101e-08 trig=  9.66423e-08
i_vdd_avg           =  -3.32033e-07 from=  1.00000e-08 to=  3.30001e-07
power_avg_uw        =  6.44191e-01


Total analysis time (seconds) = 3.07662

Total elapsed time (seconds) = 3.251 

Total DRAM available = 16384.000 MB.
DRAM currently available =  115.594 MB.
Maximum ngspice program size =   26.891 MB.
Current ngspice program size =   26.891 MB.

