
Note: Compatibility modes selected: hs a


Circuit: SKY130 library cell mux2_1 A0_to_X__A1=0,S=0

option SCALE: Scale is set to 1e-06 for instance and model parameters
Doing analysis at TEMP = 19.641208 and TNOM = 27.000000

Using KLU as Direct Linear Solver
 Reference value :  1.28114e-08
 Reference value :  6.52811e-08
 Reference value :  1.18805e-07
 Reference value :  1.72630e-07
 Reference value :  2.25241e-07
 Reference value :  2.81080e-07
 Reference value :  3.27550e-07
No. of Data Rows : 68034

  Measurements for Transient Analysis

tplh                =  5.90600e-10 targ=  2.75074e-08 trig=  2.69168e-08
tphl                =  1.27382e-09 targ=  1.04024e-07 trig=  1.02750e-07
i_vdd_avg           =  -1.40424e-06 from=  1.00000e-08 to=  3.30005e-07
power_avg_uw        =  2.76503e+00


Total analysis time (seconds) = 1.65361

Total elapsed time (seconds) = 1.833 

Total DRAM available = 16384.000 MB.
DRAM currently available =  117.047 MB.
Maximum ngspice program size =   27.047 MB.
Current ngspice program size =   27.047 MB.

