
Note: Compatibility modes selected: hs a


Circuit: SKY130 library cell nand2_4 A_to_Y__B=1

option SCALE: Scale is set to 1e-06 for instance and model parameters
Doing analysis at TEMP = -29.530460 and TNOM = 27.000000

Using KLU as Direct Linear Solver
 Reference value :  1.75914e-08
 Reference value :  6.39928e-08
 Reference value :  1.11983e-07
 Reference value :  1.57093e-07
 Reference value :  2.06088e-07
 Reference value :  2.49518e-07
 Reference value :  2.94788e-07
No. of Data Rows : 68032

  Measurements for Transient Analysis

tphl                =  1.41455e-10 targ=  2.70816e-08 trig=  2.69401e-08
tplh                =  1.10225e-09 targ=  1.03923e-07 trig=  1.02820e-07
i_vdd_avg           =  -6.64057e-07 from=  1.00000e-08 to=  3.30003e-07
power_avg_uw        =  1.23400e+00


Total analysis time (seconds) = 1.86032

Total elapsed time (seconds) = 2.015 

Total DRAM available = 16384.000 MB.
DRAM currently available =   95.531 MB.
Maximum ngspice program size =   27.531 MB.
Current ngspice program size =   27.531 MB.

