
Note: Compatibility modes selected: hs a


Circuit: SKY130 library cell inv_1 A_to_Y

option SCALE: Scale is set to 1e-06 for instance and model parameters
Doing analysis at TEMP = 61.456273 and TNOM = 27.000000

Using KLU as Direct Linear Solver
 Reference value :  1.19635e-07
No. of Data Rows : 68032

  Measurements for Transient Analysis

tphl                =  2.86246e-10 targ=  2.63582e-08 trig=  2.60719e-08
tplh                =  8.98231e-10 targ=  1.01114e-07 trig=  1.00216e-07
i_vdd_avg           =  -3.74561e-07 from=  1.00000e-08 to=  3.30000e-07
power_avg_uw        =  7.07684e-01


Total analysis time (seconds) = 0.328746

Total elapsed time (seconds) = 0.471 

Total DRAM available = 16384.000 MB.
DRAM currently available =  132.047 MB.
Maximum ngspice program size =   24.156 MB.
Current ngspice program size =   24.156 MB.

