
Note: Compatibility modes selected: hs a


Circuit: SKY130 library cell inv_4 A_to_Y

option SCALE: Scale is set to 1e-06 for instance and model parameters
Doing analysis at TEMP = 78.203024 and TNOM = 27.000000

Using KLU as Direct Linear Solver
 Reference value :  2.91475e-08
 Reference value :  1.29915e-07
 Reference value :  2.25874e-07
 Reference value :  3.19855e-07
No. of Data Rows : 68030

  Measurements for Transient Analysis

tphl                =  3.53567e-10 targ=  2.71918e-08 trig=  2.68382e-08
tplh                =  1.04087e-09 targ=  1.03556e-07 trig=  1.02515e-07
i_vdd_avg           =  -7.80543e-07 from=  1.00000e-08 to=  3.30000e-07
power_avg_uw        =  1.28685e+00


Total analysis time (seconds) = 0.89922

Total elapsed time (seconds) = 1.071 

Total DRAM available = 16384.000 MB.
DRAM currently available =  124.984 MB.
Maximum ngspice program size =   26.234 MB.
Current ngspice program size =   26.234 MB.

