
Note: Compatibility modes selected: hs a


Circuit: SKY130 library cell nand2_1 A_to_Y__B=1

option SCALE: Scale is set to 1e-06 for instance and model parameters
Doing analysis at TEMP = 31.318699 and TNOM = 27.000000

Using KLU as Direct Linear Solver
 Reference value :  6.52418e-08
 Reference value :  2.23432e-07
No. of Data Rows : 68032

  Measurements for Transient Analysis

tphl                =  1.12716e-09 targ=  2.68093e-08 trig=  2.56821e-08
tplh                =  1.79256e-09 targ=  1.00839e-07 trig=  9.90464e-08
i_vdd_avg           =  -2.40793e-06 from=  1.00000e-08 to=  3.30001e-07
power_avg_uw        =  4.54917e+00


Total analysis time (seconds) = 0.541124

Total elapsed time (seconds) = 0.689 

Total DRAM available = 16384.000 MB.
DRAM currently available =  126.391 MB.
Maximum ngspice program size =   25.406 MB.
Current ngspice program size =   25.406 MB.

