
Note: Compatibility modes selected: hs a


Circuit: SKY130 library cell aoi21_1 A1_to_Y__A2=1,B1=0

option SCALE: Scale is set to 1e-06 for instance and model parameters
Doing analysis at TEMP = 5.127208 and TNOM = 27.000000

Using KLU as Direct Linear Solver
 Reference value :  2.61225e-08
 Reference value :  1.31910e-07
 Reference value :  2.29394e-07
 Reference value :  3.28645e-07
No. of Data Rows : 68032

  Measurements for Transient Analysis

tphl                =  2.20114e-09 targ=  2.82042e-08 trig=  2.60031e-08
tplh                =  4.98452e-09 targ=  1.04994e-07 trig=  1.00009e-07
i_vdd_avg           =  -2.30012e-06 from=  1.00000e-08 to=  3.30005e-07
power_avg_uw        =  4.23388e+00


Total analysis time (seconds) = 0.881412

Total elapsed time (seconds) = 1.048 

Total DRAM available = 16384.000 MB.
DRAM currently available =  147.109 MB.
Maximum ngspice program size =   27.297 MB.
Current ngspice program size =   27.297 MB.

