
Note: Compatibility modes selected: hs a


Circuit: SKY130 library cell mux2_1 A0_to_X__A1=0,S=0

option SCALE: Scale is set to 1e-06 for instance and model parameters
Doing analysis at TEMP = 65.539439 and TNOM = 27.000000

Using KLU as Direct Linear Solver
 Reference value :  1.48214e-08
 Reference value :  6.60323e-08
 Reference value :  1.18077e-07
 Reference value :  1.72152e-07
 Reference value :  2.24582e-07
 Reference value :  2.78062e-07
 Reference value :  3.33767e-07
No. of Data Rows : 68032

  Measurements for Transient Analysis

tplh                =  1.01315e-09 targ=  2.64305e-08 trig=  2.54174e-08
tphl                =  1.18968e-09 targ=  9.94418e-08 trig=  9.82521e-08
i_vdd_avg           =  -1.18954e-06 from=  1.00000e-08 to=  3.30002e-07
power_avg_uw        =  2.30421e+00


Total analysis time (seconds) = 1.65229

Total elapsed time (seconds) = 1.833 

Total DRAM available = 16384.000 MB.
DRAM currently available =   96.203 MB.
Maximum ngspice program size =   27.281 MB.
Current ngspice program size =   27.281 MB.

