
Note: Compatibility modes selected: hs a


Circuit: SKY130 library cell oai21_4 A1_to_Y__A2=0,B1=1

option SCALE: Scale is set to 1e-06 for instance and model parameters
Doing analysis at TEMP = -13.448647 and TNOM = 27.000000

Using KLU as Direct Linear Solver
 Reference value :  9.19140e-09
 Reference value :  3.49349e-08
 Reference value :  6.47999e-08
 Reference value :  9.54799e-08
 Reference value :  1.23467e-07
 Reference value :  1.46927e-07
 Reference value :  1.73367e-07
 Reference value :  2.02460e-07
 Reference value :  2.28520e-07
 Reference value :  2.55505e-07
 Reference value :  2.80402e-07
 Reference value :  3.06852e-07
 Reference value :  3.31247e-07
No. of Data Rows : 68030

  Measurements for Transient Analysis

tphl                =  4.98492e-10 targ=  2.92947e-08 trig=  2.87962e-08
tplh                =  2.26568e-09 targ=  1.10654e-07 trig=  1.08389e-07
i_vdd_avg           =  -1.13272e-06 from=  1.00000e-08 to=  3.30002e-07
power_avg_uw        =  2.02190e+00


Total analysis time (seconds) = 3.52042

Total elapsed time (seconds) = 3.677 

Total DRAM available = 16384.000 MB.
DRAM currently available =  137.688 MB.
Maximum ngspice program size =   25.297 MB.
Current ngspice program size =   25.297 MB.

