
Note: Compatibility modes selected: hs a


Circuit: SKY130 library cell aoi21_1 A1_to_Y__A2=1,B1=0

option SCALE: Scale is set to 1e-06 for instance and model parameters
Doing analysis at TEMP = 23.680512 and TNOM = 27.000000

Using KLU as Direct Linear Solver
 Reference value :  3.38043e-08
 Reference value :  1.37806e-07
 Reference value :  2.36324e-07
No. of Data Rows : 68030

  Measurements for Transient Analysis

tphl                =  1.14701e-09 targ=  2.64554e-08 trig=  2.53084e-08
tplh                =  2.52140e-09 targ=  1.00447e-07 trig=  9.79252e-08
i_vdd_avg           =  -1.15452e-06 from=  1.00000e-08 to=  3.30001e-07
power_avg_uw        =  1.92829e+00


Total analysis time (seconds) = 0.843815

Total elapsed time (seconds) = 0.998 

Total DRAM available = 16384.000 MB.
DRAM currently available =  118.797 MB.
Maximum ngspice program size =   25.672 MB.
Current ngspice program size =   25.672 MB.

