
Note: Compatibility modes selected: hs a


Circuit: SKY130 library cell nand3_4 A_to_Y__B=1,C=1

option SCALE: Scale is set to 1e-06 for instance and model parameters
Doing analysis at TEMP = 96.443953 and TNOM = 27.000000

Using KLU as Direct Linear Solver
 Reference value :  8.60140e-09
 Reference value :  3.65933e-08
 Reference value :  6.38683e-08
 Reference value :  9.29633e-08
 Reference value :  1.22404e-07
 Reference value :  1.50924e-07
 Reference value :  1.78024e-07
 Reference value :  2.05853e-07
 Reference value :  2.32828e-07
 Reference value :  2.61258e-07
 Reference value :  2.88549e-07
 Reference value :  3.15319e-07
No. of Data Rows : 68032

  Measurements for Transient Analysis

tphl                =  2.59633e-10 targ=  2.68100e-08 trig=  2.65504e-08
tplh                =  6.25946e-10 targ=  1.02277e-07 trig=  1.01651e-07
i_vdd_avg           =  -1.08458e-06 from=  1.00000e-08 to=  3.30004e-07
power_avg_uw        =  2.05042e+00


Total analysis time (seconds) = 3.10777

Total elapsed time (seconds) = 3.279 

Total DRAM available = 16384.000 MB.
DRAM currently available =  107.156 MB.
Maximum ngspice program size =   26.141 MB.
Current ngspice program size =   26.141 MB.

