
Note: Compatibility modes selected: hs a


Circuit: SKY130 library cell nand3_4 A_to_Y__B=1,C=1

option SCALE: Scale is set to 1e-06 for instance and model parameters
Doing analysis at TEMP = -30.661616 and TNOM = 27.000000

Using KLU as Direct Linear Solver
 Reference value :  8.53140e-09
 Reference value :  3.67450e-08
 Reference value :  6.33750e-08
 Reference value :  9.17650e-08
 Reference value :  1.18853e-07
 Reference value :  1.46908e-07
 Reference value :  1.74283e-07
 Reference value :  2.03300e-07
 Reference value :  2.30525e-07
 Reference value :  2.59080e-07
 Reference value :  2.86338e-07
 Reference value :  3.14008e-07
No. of Data Rows : 68034

  Measurements for Transient Analysis

tphl                =  1.57361e-09 targ=  3.12274e-08 trig=  2.96538e-08
tplh                =  3.10068e-09 targ=  1.14062e-07 trig=  1.10961e-07
i_vdd_avg           =  -2.44387e-06 from=  1.00000e-08 to=  3.30003e-07
power_avg_uw        =  4.78791e+00


Total analysis time (seconds) = 3.07985

Total elapsed time (seconds) = 3.250 

Total DRAM available = 16384.000 MB.
DRAM currently available =  106.906 MB.
Maximum ngspice program size =   28.031 MB.
Current ngspice program size =   28.031 MB.

