
Note: Compatibility modes selected: hs a


Circuit: SKY130 library cell nor2_4 A_to_Y__B=0

option SCALE: Scale is set to 1e-06 for instance and model parameters
Doing analysis at TEMP = 101.803010 and TNOM = 27.000000

Using KLU as Direct Linear Solver
 Reference value :  1.91464e-08
 Reference value :  6.85712e-08
 Reference value :  1.13275e-07
 Reference value :  1.58670e-07
 Reference value :  2.04776e-07
 Reference value :  2.49156e-07
 Reference value :  2.96835e-07
No. of Data Rows : 68034

  Measurements for Transient Analysis

tphl                =  3.50880e-10 targ=  2.60403e-08 trig=  2.56894e-08
tplh                =  6.61455e-10 targ=  9.97296e-08 trig=  9.90681e-08
i_vdd_avg           =  -3.72804e-07 from=  1.00000e-08 to=  3.30005e-07
power_avg_uw        =  6.53433e-01


Total analysis time (seconds) = 1.84985

Total elapsed time (seconds) = 1.997 

Total DRAM available = 16384.000 MB.
DRAM currently available =  123.125 MB.
Maximum ngspice program size =   26.750 MB.
Current ngspice program size =   26.750 MB.

