
Note: Compatibility modes selected: hs a


Circuit: SKY130 library cell aoi21_4 A1_to_Y__A2=1,B1=0

option SCALE: Scale is set to 1e-06 for instance and model parameters
Doing analysis at TEMP = 30.554836 and TNOM = 27.000000

Using KLU as Direct Linear Solver
 Reference value :  7.22140e-09
 Reference value :  3.70517e-08
 Reference value :  6.52017e-08
 Reference value :  9.38917e-08
 Reference value :  1.22381e-07
 Reference value :  1.51291e-07
 Reference value :  1.79186e-07
 Reference value :  2.07667e-07
 Reference value :  2.36007e-07
 Reference value :  2.64342e-07
 Reference value :  2.92691e-07
 Reference value :  3.20861e-07
No. of Data Rows : 68032

  Measurements for Transient Analysis

tphl                =  7.73148e-10 targ=  2.91803e-08 trig=  2.84071e-08
tplh                =  2.25921e-09 targ=  1.09481e-07 trig=  1.07221e-07
i_vdd_avg           =  -1.42335e-06 from=  1.00000e-08 to=  3.30001e-07
power_avg_uw        =  2.42509e+00


Total analysis time (seconds) = 3.03695

Total elapsed time (seconds) = 3.209 

Total DRAM available = 16384.000 MB.
DRAM currently available =  125.766 MB.
Maximum ngspice program size =   27.969 MB.
Current ngspice program size =   27.969 MB.

