
Note: Compatibility modes selected: hs a


Circuit: SKY130 library cell oai21_1 A1_to_Y__A2=0,B1=1

option SCALE: Scale is set to 1e-06 for instance and model parameters
Doing analysis at TEMP = -3.403881 and TNOM = 27.000000

Using KLU as Direct Linear Solver
 Reference value :  3.11225e-08
 Reference value :  1.25048e-07
 Reference value :  2.21598e-07
 Reference value :  3.21298e-07
No. of Data Rows : 68032

  Measurements for Transient Analysis

tphl                =  9.57755e-10 targ=  2.92454e-08 trig=  2.82877e-08
tplh                =  2.77031e-09 targ=  1.09633e-07 trig=  1.06863e-07
i_vdd_avg           =  -7.15354e-07 from=  1.00000e-08 to=  3.30003e-07
power_avg_uw        =  1.31036e+00


Total analysis time (seconds) = 0.895271

Total elapsed time (seconds) = 1.049 

Total DRAM available = 16384.000 MB.
DRAM currently available =  130.250 MB.
Maximum ngspice program size =   25.031 MB.
Current ngspice program size =   25.031 MB.

