
Note: Compatibility modes selected: hs a


Circuit: SKY130 library cell oai21_1 A1_to_Y__A2=0,B1=1

option SCALE: Scale is set to 1e-06 for instance and model parameters
Doing analysis at TEMP = 100.245300 and TNOM = 27.000000

Using KLU as Direct Linear Solver
 Reference value :  3.15362e-08
 Reference value :  1.34245e-07
 Reference value :  2.29956e-07
 Reference value :  3.33435e-07
No. of Data Rows : 68034

  Measurements for Transient Analysis

tphl                =  5.73172e-10 targ=  2.73725e-08 trig=  2.67993e-08
tplh                =  1.00423e-09 targ=  1.03402e-07 trig=  1.02398e-07
i_vdd_avg           =  -1.01012e-07 from=  1.00000e-08 to=  3.30005e-07
power_avg_uw        =  1.72436e-01


Total analysis time (seconds) = 0.850194

Total elapsed time (seconds) = 1.021 

Total DRAM available = 16384.000 MB.
DRAM currently available =   78.844 MB.
Maximum ngspice program size =   27.719 MB.
Current ngspice program size =   27.719 MB.

