
Note: Compatibility modes selected: hs a


Circuit: SKY130 library cell oai21_4 A1_to_Y__A2=0,B1=1

option SCALE: Scale is set to 1e-06 for instance and model parameters
Doing analysis at TEMP = 1.925255 and TNOM = 27.000000

Using KLU as Direct Linear Solver
 Reference value :  5.53140e-09
 Reference value :  3.09882e-08
 Reference value :  5.90982e-08
 Reference value :  8.56032e-08
 Reference value :  1.13559e-07
 Reference value :  1.41229e-07
 Reference value :  1.69454e-07
 Reference value :  1.95518e-07
 Reference value :  2.22478e-07
 Reference value :  2.50883e-07
 Reference value :  2.79834e-07
 Reference value :  3.07754e-07
 Reference value :  3.35179e-07
No. of Data Rows : 68032

  Measurements for Transient Analysis

tphl                =  4.17217e-10 targ=  2.64526e-08 trig=  2.60354e-08
tplh                =  1.44545e-09 targ=  1.01552e-07 trig=  1.00106e-07
i_vdd_avg           =  -1.55994e-06 from=  1.00000e-08 to=  3.30004e-07
power_avg_uw        =  2.56726e+00


Total analysis time (seconds) = 3.17421

Total elapsed time (seconds) = 3.374 

Total DRAM available = 16384.000 MB.
DRAM currently available =  233.141 MB.
Maximum ngspice program size =   27.594 MB.
Current ngspice program size =   27.594 MB.

