
Note: Compatibility modes selected: hs a


Circuit: SKY130 library cell inv_1 A_to_Y

option SCALE: Scale is set to 1e-06 for instance and model parameters
Doing analysis at TEMP = -31.706968 and TNOM = 27.000000

Using KLU as Direct Linear Solver
 Reference value :  9.21909e-08
No. of Data Rows : 68034

  Measurements for Transient Analysis

tphl                =  5.51898e-10 targ=  2.51036e-08 trig=  2.45517e-08
tplh                =  1.16259e-09 targ=  9.68176e-08 trig=  9.56550e-08
i_vdd_avg           =  -7.35473e-07 from=  1.00000e-08 to=  3.30004e-07
power_avg_uw        =  1.27806e+00


Total analysis time (seconds) = 0.306815

Total elapsed time (seconds) = 0.463 

Total DRAM available = 16384.000 MB.
DRAM currently available =  132.047 MB.
Maximum ngspice program size =   27.109 MB.
Current ngspice program size =   27.109 MB.

