
Note: Compatibility modes selected: hs a


Circuit: SKY130 library cell xor2_4 A_to_X__B=0

option SCALE: Scale is set to 1e-06 for instance and model parameters
Doing analysis at TEMP = 19.691488 and TNOM = 27.000000

Using KLU as Direct Linear Solver
 Reference value :  4.22140e-09
 Reference value :  2.17914e-08
 Reference value :  3.88715e-08
 Reference value :  5.56015e-08
 Reference value :  7.26715e-08
 Reference value :  9.01865e-08
 Reference value :  1.07081e-07
 Reference value :  1.23951e-07
 Reference value :  1.40906e-07
 Reference value :  1.58221e-07
 Reference value :  1.75426e-07
 Reference value :  1.92677e-07
 Reference value :  2.09837e-07
 Reference value :  2.27257e-07
 Reference value :  2.43582e-07
 Reference value :  2.61091e-07
 Reference value :  2.77881e-07
 Reference value :  2.95441e-07
 Reference value :  3.12166e-07
 Reference value :  3.29386e-07
No. of Data Rows : 68032

  Measurements for Transient Analysis

tplh                =  1.29503e-10 targ=  2.57115e-08 trig=  2.55820e-08
tphl                =  5.04150e-10 targ=  9.92502e-08 trig=  9.87460e-08
i_vdd_avg           =  -9.17367e-07 from=  1.00000e-08 to=  3.30001e-07
power_avg_uw        =  1.77356e+00


Total analysis time (seconds) = 5.03439

Total elapsed time (seconds) = 5.228 

Total DRAM available = 16384.000 MB.
DRAM currently available =  136.672 MB.
Maximum ngspice program size =   30.141 MB.
Current ngspice program size =   30.141 MB.

