
Note: Compatibility modes selected: hs a


Circuit: SKY130 library cell nand3_1 A_to_Y__B=1,C=1

option SCALE: Scale is set to 1e-06 for instance and model parameters
Doing analysis at TEMP = 96.507797 and TNOM = 27.000000

Using KLU as Direct Linear Solver
 Reference value :  3.50782e-08
 Reference value :  1.32584e-07
 Reference value :  2.27303e-07
 Reference value :  3.23384e-07
No. of Data Rows : 68032

  Measurements for Transient Analysis

tphl                =  2.43512e-09 targ=  2.92280e-08 trig=  2.67929e-08
tplh                =  2.44655e-09 targ=  1.04825e-07 trig=  1.02379e-07
i_vdd_avg           =  -1.22866e-06 from=  1.00000e-08 to=  3.30004e-07
power_avg_uw        =  2.23772e+00


Total analysis time (seconds) = 0.922035

Total elapsed time (seconds) = 1.081 

Total DRAM available = 16384.000 MB.
DRAM currently available =  151.500 MB.
Maximum ngspice program size =   23.922 MB.
Current ngspice program size =   23.922 MB.

