
Note: Compatibility modes selected: hs a


Circuit: SKY130 library cell oai21_4 A1_to_Y__A2=0,B1=1

option SCALE: Scale is set to 1e-06 for instance and model parameters
Doing analysis at TEMP = -9.498613 and TNOM = 27.000000

Using KLU as Direct Linear Solver
 Reference value :  8.82640e-09
 Reference value :  3.68753e-08
 Reference value :  6.34353e-08
 Reference value :  9.26903e-08
 Reference value :  1.22588e-07
 Reference value :  1.51068e-07
 Reference value :  1.78983e-07
 Reference value :  2.08500e-07
 Reference value :  2.35905e-07
 Reference value :  2.65115e-07
 Reference value :  2.93658e-07
 Reference value :  3.24038e-07
No. of Data Rows : 68034

  Measurements for Transient Analysis

tphl                =  5.52939e-11 targ=  2.86717e-08 trig=  2.86164e-08
tplh                =  2.05572e-09 targ=  1.09905e-07 trig=  1.07849e-07
i_vdd_avg           =  -2.59868e-06 from=  1.00000e-08 to=  3.30003e-07
power_avg_uw        =  4.85149e+00


Total analysis time (seconds) = 3.05887

Total elapsed time (seconds) = 3.232 

Total DRAM available = 16384.000 MB.
DRAM currently available =  215.891 MB.
Maximum ngspice program size =   28.031 MB.
Current ngspice program size =   28.031 MB.

