
Note: Compatibility modes selected: hs a


Circuit: SKY130 library cell oai21_1 A1_to_Y__A2=0,B1=1

option SCALE: Scale is set to 1e-06 for instance and model parameters
Doing analysis at TEMP = 90.816043 and TNOM = 27.000000

Using KLU as Direct Linear Solver
 Reference value :  2.52875e-08
 Reference value :  1.29876e-07
 Reference value :  2.28872e-07
 Reference value :  3.29071e-07
No. of Data Rows : 68032

  Measurements for Transient Analysis

tphl                =  1.29572e-09 targ=  3.10402e-08 trig=  2.97445e-08
tplh                =  3.50555e-09 targ=  1.14739e-07 trig=  1.11234e-07
i_vdd_avg           =  -1.92899e-06 from=  1.00000e-08 to=  3.30001e-07
power_avg_uw        =  3.39153e+00


Total analysis time (seconds) = 0.860765

Total elapsed time (seconds) = 1.031 

Total DRAM available = 16384.000 MB.
DRAM currently available =  120.938 MB.
Maximum ngspice program size =   26.828 MB.
Current ngspice program size =   26.828 MB.

