
Note: Compatibility modes selected: hs a


Circuit: SKY130 library cell inv_1 A_to_Y

option SCALE: Scale is set to 1e-06 for instance and model parameters
Doing analysis at TEMP = 49.643605 and TNOM = 27.000000

Using KLU as Direct Linear Solver
 Reference value :  1.26218e-07
No. of Data Rows : 68034

  Measurements for Transient Analysis

tphl                =  1.74530e-09 targ=  2.91517e-08 trig=  2.74064e-08
tplh                =  2.92991e-09 targ=  1.07149e-07 trig=  1.04219e-07
i_vdd_avg           =  -1.48460e-06 from=  1.00000e-08 to=  3.30003e-07
power_avg_uw        =  2.83186e+00


Total analysis time (seconds) = 0.307725

Total elapsed time (seconds) = 0.448 

Total DRAM available = 16384.000 MB.
DRAM currently available =  110.906 MB.
Maximum ngspice program size =   26.891 MB.
Current ngspice program size =   26.891 MB.

