
Note: Compatibility modes selected: hs a


Circuit: SKY130 library cell nor2_4 A_to_Y__B=0

option SCALE: Scale is set to 1e-06 for instance and model parameters
Doing analysis at TEMP = 21.277438 and TNOM = 27.000000

Using KLU as Direct Linear Solver
 Reference value :  1.23564e-08
 Reference value :  5.99036e-08
 Reference value :  1.02095e-07
 Reference value :  1.46695e-07
 Reference value :  1.87604e-07
 Reference value :  2.33004e-07
 Reference value :  2.73765e-07
 Reference value :  3.15990e-07
No. of Data Rows : 68032

  Measurements for Transient Analysis

tphl                =  3.21565e-10 targ=  2.55596e-08 trig=  2.52381e-08
tplh                =  1.10068e-09 targ=  9.88149e-08 trig=  9.77142e-08
i_vdd_avg           =  -2.19302e-06 from=  1.00000e-08 to=  3.30005e-07
power_avg_uw        =  3.80796e+00


Total analysis time (seconds) = 1.99962

Total elapsed time (seconds) = 2.171 

Total DRAM available = 16384.000 MB.
DRAM currently available =  103.906 MB.
Maximum ngspice program size =   25.719 MB.
Current ngspice program size =   25.719 MB.

