
Note: Compatibility modes selected: hs a


Circuit: SKY130 library cell xor2_4 A_to_X__B=0

option SCALE: Scale is set to 1e-06 for instance and model parameters
Doing analysis at TEMP = 65.593070 and TNOM = 27.000000

Using KLU as Direct Linear Solver
 Reference value :  4.00140e-09
 Reference value :  2.10514e-08
 Reference value :  3.90532e-08
 Reference value :  5.55532e-08
 Reference value :  7.34382e-08
 Reference value :  9.05832e-08
 Reference value :  1.07884e-07
 Reference value :  1.24589e-07
 Reference value :  1.41664e-07
 Reference value :  1.58554e-07
 Reference value :  1.74979e-07
 Reference value :  1.91203e-07
 Reference value :  2.08923e-07
 Reference value :  2.26023e-07
 Reference value :  2.44193e-07
 Reference value :  2.61434e-07
 Reference value :  2.78189e-07
 Reference value :  2.95409e-07
 Reference value :  3.13189e-07
 Reference value :  3.30394e-07
No. of Data Rows : 68032

  Measurements for Transient Analysis

tplh                =  3.78056e-10 targ=  2.49634e-08 trig=  2.45853e-08
tphl                =  3.28252e-10 targ=  9.60842e-08 trig=  9.57560e-08
i_vdd_avg           =  -1.64210e-06 from=  1.00000e-08 to=  3.30004e-07
power_avg_uw        =  2.78512e+00


Total analysis time (seconds) = 5.00568

Total elapsed time (seconds) = 5.202 

Total DRAM available = 16384.000 MB.
DRAM currently available =  118.312 MB.
Maximum ngspice program size =   28.969 MB.
Current ngspice program size =   28.969 MB.

