
Note: Compatibility modes selected: hs a


Circuit: SKY130 library cell xor2_1 A_to_X__B=0

option SCALE: Scale is set to 1e-06 for instance and model parameters
Doing analysis at TEMP = 16.093560 and TNOM = 27.000000

Using KLU as Direct Linear Solver
 Reference value :  2.31214e-08
 Reference value :  8.82106e-08
 Reference value :  1.56624e-07
 Reference value :  2.23196e-07
 Reference value :  2.88369e-07
No. of Data Rows : 68034

  Measurements for Transient Analysis

tplh                =  8.03303e-10 targ=  3.03549e-08 trig=  2.95516e-08
tphl                =  1.55766e-09 targ=  1.12212e-07 trig=  1.10655e-07
i_vdd_avg           =  -9.97182e-07 from=  1.00000e-08 to=  3.30004e-07
power_avg_uw        =  1.79817e+00


Total analysis time (seconds) = 1.30428

Total elapsed time (seconds) = 1.460 

Total DRAM available = 16384.000 MB.
DRAM currently available =  115.953 MB.
Maximum ngspice program size =   27.734 MB.
Current ngspice program size =   27.734 MB.

