
Note: Compatibility modes selected: hs a


Circuit: SKY130 library cell nor2_1 A_to_Y__B=0

option SCALE: Scale is set to 1e-06 for instance and model parameters
Doing analysis at TEMP = -13.157913 and TNOM = 27.000000

Using KLU as Direct Linear Solver
 Reference value :  6.51163e-08
 Reference value :  2.11301e-07
No. of Data Rows : 68032

  Measurements for Transient Analysis

tphl                =  7.55953e-10 targ=  3.04078e-08 trig=  2.96519e-08
tplh                =  4.02619e-09 targ=  1.14982e-07 trig=  1.10956e-07
i_vdd_avg           =  -1.32041e-06 from=  1.00000e-08 to=  3.30000e-07
power_avg_uw        =  2.28126e+00


Total analysis time (seconds) = 0.57261

Total elapsed time (seconds) = 0.722 

Total DRAM available = 16384.000 MB.
DRAM currently available =  183.094 MB.
Maximum ngspice program size =   24.562 MB.
Current ngspice program size =   24.562 MB.

