
Note: Compatibility modes selected: hs a


Circuit: SKY130 library cell nor2_1 A_to_Y__B=0

option SCALE: Scale is set to 1e-06 for instance and model parameters
Doing analysis at TEMP = 38.910989 and TNOM = 27.000000

Using KLU as Direct Linear Solver
 Reference value :  4.37859e-08
 Reference value :  1.88173e-07
No. of Data Rows : 68034

  Measurements for Transient Analysis

tphl                =  2.59766e-09 targ=  3.11744e-08 trig=  2.85767e-08
tplh                =  5.37160e-09 targ=  1.13102e-07 trig=  1.07730e-07
i_vdd_avg           =  -1.32005e-06 from=  1.00000e-08 to=  3.30004e-07
power_avg_uw        =  2.23269e+00


Total analysis time (seconds) = 0.580635

Total elapsed time (seconds) = 0.741 

Total DRAM available = 16384.000 MB.
DRAM currently available =  131.141 MB.
Maximum ngspice program size =   25.688 MB.
Current ngspice program size =   25.688 MB.

