
Note: Compatibility modes selected: hs a


Circuit: SKY130 library cell oai21_4 A1_to_Y__A2=0,B1=1

option SCALE: Scale is set to 1e-06 for instance and model parameters
Doing analysis at TEMP = 23.584054 and TNOM = 27.000000

Using KLU as Direct Linear Solver
 Reference value :  7.63640e-09
 Reference value :  3.50360e-08
 Reference value :  6.20960e-08
 Reference value :  9.22710e-08
 Reference value :  1.20745e-07
 Reference value :  1.46835e-07
 Reference value :  1.74540e-07
 Reference value :  2.01661e-07
 Reference value :  2.29466e-07
 Reference value :  2.55890e-07
 Reference value :  2.82840e-07
 Reference value :  3.10880e-07
 Reference value :  3.38110e-07
No. of Data Rows : 68034

  Measurements for Transient Analysis

tphl                =  2.72414e-10 targ=  2.44642e-08 trig=  2.41918e-08
tplh                =  6.77139e-10 targ=  9.52524e-08 trig=  9.45753e-08
i_vdd_avg           =  -2.47582e-06 from=  1.00000e-08 to=  3.30005e-07
power_avg_uw        =  4.83314e+00


Total analysis time (seconds) = 3.30405

Total elapsed time (seconds) = 3.479 

Total DRAM available = 16384.000 MB.
DRAM currently available =  121.891 MB.
Maximum ngspice program size =   29.656 MB.
Current ngspice program size =   29.656 MB.

