
Note: Compatibility modes selected: hs a


Circuit: SKY130 library cell inv_4 A_to_Y

option SCALE: Scale is set to 1e-06 for instance and model parameters
Doing analysis at TEMP = 113.993410 and TNOM = 27.000000

Using KLU as Direct Linear Solver
 Reference value :  3.29675e-08
 Reference value :  1.24061e-07
 Reference value :  2.18234e-07
 Reference value :  3.12826e-07
No. of Data Rows : 68030

  Measurements for Transient Analysis

tphl                =  6.69519e-10 targ=  2.95479e-08 trig=  2.88784e-08
tplh                =  1.36619e-09 targ=  1.10001e-07 trig=  1.08635e-07
i_vdd_avg           =  -1.22620e-06 from=  1.00000e-08 to=  3.30001e-07
power_avg_uw        =  2.27708e+00


Total analysis time (seconds) = 0.945676

Total elapsed time (seconds) = 1.082 

Total DRAM available = 16384.000 MB.
DRAM currently available =  112.484 MB.
Maximum ngspice program size =   25.297 MB.
Current ngspice program size =   25.297 MB.

