
Note: Compatibility modes selected: hs a


Circuit: SKY130 library cell nor2_4 A_to_Y__B=0

option SCALE: Scale is set to 1e-06 for instance and model parameters
Doing analysis at TEMP = 58.279375 and TNOM = 27.000000

Using KLU as Direct Linear Solver
 Reference value :  1.48064e-08
 Reference value :  6.21904e-08
 Reference value :  1.09080e-07
 Reference value :  1.54508e-07
 Reference value :  1.99985e-07
 Reference value :  2.39300e-07
 Reference value :  2.82843e-07
 Reference value :  3.26158e-07
No. of Data Rows : 68034

  Measurements for Transient Analysis

tphl                =  6.33787e-10 targ=  2.85402e-08 trig=  2.79064e-08
tplh                =  1.63239e-09 targ=  1.07352e-07 trig=  1.05719e-07
i_vdd_avg           =  -1.00802e-06 from=  1.00000e-08 to=  3.30003e-07
power_avg_uw        =  1.88973e+00


Total analysis time (seconds) = 1.94341

Total elapsed time (seconds) = 2.109 

Total DRAM available = 16384.000 MB.
DRAM currently available =  102.875 MB.
Maximum ngspice program size =   26.906 MB.
Current ngspice program size =   26.906 MB.

