
Note: Compatibility modes selected: hs a


Circuit: SKY130 library cell xor2_4 A_to_X__B=0

option SCALE: Scale is set to 1e-06 for instance and model parameters
Doing analysis at TEMP = 74.016446 and TNOM = 27.000000

Using KLU as Direct Linear Solver
 Reference value :  4.53640e-09
 Reference value :  2.10764e-08
 Reference value :  3.93220e-08
 Reference value :  5.62270e-08
 Reference value :  7.32470e-08
 Reference value :  9.13320e-08
 Reference value :  1.08642e-07
 Reference value :  1.26567e-07
 Reference value :  1.43867e-07
 Reference value :  1.60722e-07
 Reference value :  1.77587e-07
 Reference value :  1.94457e-07
 Reference value :  2.11812e-07
 Reference value :  2.29747e-07
 Reference value :  2.47127e-07
 Reference value :  2.63937e-07
 Reference value :  2.80547e-07
 Reference value :  2.96977e-07
 Reference value :  3.14887e-07
 Reference value :  3.32552e-07
No. of Data Rows : 68032

  Measurements for Transient Analysis

tplh                =  4.36671e-10 targ=  2.71489e-08 trig=  2.67123e-08
tphl                =  8.23513e-10 targ=  1.02960e-07 trig=  1.02137e-07
i_vdd_avg           =  -2.71086e-06 from=  1.00000e-08 to=  3.30002e-07
power_avg_uw        =  4.41718e+00


Total analysis time (seconds) = 4.98896

Total elapsed time (seconds) = 5.165 

Total DRAM available = 16384.000 MB.
DRAM currently available =  138.938 MB.
Maximum ngspice program size =   27.438 MB.
Current ngspice program size =   27.438 MB.

