
Note: Compatibility modes selected: hs a


Circuit: SKY130 library cell nand3_1 A_to_Y__B=1,C=1

option SCALE: Scale is set to 1e-06 for instance and model parameters
Doing analysis at TEMP = 39.329441 and TNOM = 27.000000

Using KLU as Direct Linear Solver
 Reference value :  3.36391e-08
 Reference value :  1.29576e-07
 Reference value :  2.23264e-07
 Reference value :  3.13761e-07
No. of Data Rows : 68030

  Measurements for Transient Analysis

tphl                =  2.89789e-09 targ=  2.94137e-08 trig=  2.65158e-08
tplh                =  3.17066e-09 targ=  1.04718e-07 trig=  1.01547e-07
i_vdd_avg           =  -1.33191e-06 from=  1.00000e-08 to=  3.30001e-07
power_avg_uw        =  2.18254e+00


Total analysis time (seconds) = 0.919671

Total elapsed time (seconds) = 1.156 

Total DRAM available = 16384.000 MB.
DRAM currently available =  157.109 MB.
Maximum ngspice program size =   26.375 MB.
Current ngspice program size =   26.375 MB.

