
Note: Compatibility modes selected: hs a


Circuit: SKY130 library cell nor2_1 A_to_Y__B=0

option SCALE: Scale is set to 1e-06 for instance and model parameters
Doing analysis at TEMP = 124.157780 and TNOM = 27.000000

Using KLU as Direct Linear Solver
 Reference value :  5.47825e-08
 Reference value :  2.06883e-07
No. of Data Rows : 68032

  Measurements for Transient Analysis

tphl                =  9.84554e-11 targ=  2.95935e-08 trig=  2.94950e-08
tplh                =  1.22587e-09 targ=  1.11711e-07 trig=  1.10485e-07
i_vdd_avg           =  -3.72160e-07 from=  1.00000e-08 to=  3.30003e-07
power_avg_uw        =  6.55237e-01


Total analysis time (seconds) = 0.599885

Total elapsed time (seconds) = 0.747 

Total DRAM available = 16384.000 MB.
DRAM currently available =  165.828 MB.
Maximum ngspice program size =   23.281 MB.
Current ngspice program size =   23.281 MB.

