
Note: Compatibility modes selected: hs a


Circuit: SKY130 library cell mux2_1 A0_to_X__A1=0,S=0

option SCALE: Scale is set to 1e-06 for instance and model parameters
Doing analysis at TEMP = 60.639381 and TNOM = 27.000000

Using KLU as Direct Linear Solver
 Reference value :  1.81914e-08
 Reference value :  6.98198e-08
 Reference value :  1.25597e-07
 Reference value :  1.78442e-07
 Reference value :  2.33410e-07
 Reference value :  2.83327e-07
 Reference value :  3.38147e-07
No. of Data Rows : 68030

  Measurements for Transient Analysis

tplh                =  1.22246e-09 targ=  3.08436e-08 trig=  2.96212e-08
tphl                =  2.18857e-09 targ=  1.13052e-07 trig=  1.10863e-07
i_vdd_avg           =  -2.10045e-06 from=  1.00000e-08 to=  3.30002e-07
power_avg_uw        =  3.69825e+00


Total analysis time (seconds) = 1.65132

Total elapsed time (seconds) = 1.810 

Total DRAM available = 16384.000 MB.
DRAM currently available =  171.391 MB.
Maximum ngspice program size =   26.875 MB.
Current ngspice program size =   26.875 MB.

