
Note: Compatibility modes selected: hs a


Circuit: SKY130 library cell nand3_1 A_to_Y__B=1,C=1

option SCALE: Scale is set to 1e-06 for instance and model parameters
Doing analysis at TEMP = 8.738041 and TNOM = 27.000000

Using KLU as Direct Linear Solver
 Reference value :  2.93268e-08
 Reference value :  1.19291e-07
 Reference value :  2.20912e-07
 Reference value :  3.17516e-07
No. of Data Rows : 68032

  Measurements for Transient Analysis

tphl                =  1.23090e-09 targ=  2.65655e-08 trig=  2.53346e-08
tplh                =  1.45779e-09 targ=  9.94617e-08 trig=  9.80039e-08
i_vdd_avg           =  -1.01413e-06 from=  1.00000e-08 to=  3.30001e-07
power_avg_uw        =  1.98769e+00


Total analysis time (seconds) = 0.911601

Total elapsed time (seconds) = 1.091 

Total DRAM available = 16384.000 MB.
DRAM currently available =  250.016 MB.
Maximum ngspice program size =   26.922 MB.
Current ngspice program size =   26.922 MB.

