
Note: Compatibility modes selected: hs a


Circuit: SKY130 library cell nor2_1 A_to_Y__B=0

option SCALE: Scale is set to 1e-06 for instance and model parameters
Doing analysis at TEMP = 44.925172 and TNOM = 27.000000

Using KLU as Direct Linear Solver
 Reference value :  6.06813e-08
 Reference value :  2.10781e-07
No. of Data Rows : 68032

  Measurements for Transient Analysis

tphl                =  1.16766e-09 targ=  2.91670e-08 trig=  2.79994e-08
tplh                =  3.01848e-09 targ=  1.09017e-07 trig=  1.05998e-07
i_vdd_avg           =  -8.35136e-07 from=  1.00000e-08 to=  3.30000e-07
power_avg_uw        =  1.42203e+00


Total analysis time (seconds) = 0.562505

Total elapsed time (seconds) = 0.714 

Total DRAM available = 16384.000 MB.
DRAM currently available =   87.938 MB.
Maximum ngspice program size =   24.375 MB.
Current ngspice program size =   24.375 MB.

