
Note: Compatibility modes selected: hs a


Circuit: SKY130 library cell nand3_1 A_to_Y__B=1,C=1

option SCALE: Scale is set to 1e-06 for instance and model parameters
Doing analysis at TEMP = 124.977320 and TNOM = 27.000000

Using KLU as Direct Linear Solver
 Reference value :  3.19033e-08
 Reference value :  1.30074e-07
 Reference value :  2.34373e-07
 Reference value :  3.29754e-07
No. of Data Rows : 68032

  Measurements for Transient Analysis

tphl                =  3.19809e-10 targ=  2.50652e-08 trig=  2.47454e-08
tplh                =  4.18150e-10 targ=  9.66544e-08 trig=  9.62363e-08
i_vdd_avg           =  -3.19943e-07 from=  1.00000e-08 to=  3.30004e-07
power_avg_uw        =  5.45913e-01


Total analysis time (seconds) = 0.897911

Total elapsed time (seconds) = 1.060 

Total DRAM available = 16384.000 MB.
DRAM currently available =  133.422 MB.
Maximum ngspice program size =   25.172 MB.
Current ngspice program size =   25.172 MB.

