
Note: Compatibility modes selected: hs a


Circuit: SKY130 library cell nand3_1 A_to_Y__B=1,C=1

option SCALE: Scale is set to 1e-06 for instance and model parameters
Doing analysis at TEMP = -12.690963 and TNOM = 27.000000

Using KLU as Direct Linear Solver
 Reference value :  2.81925e-08
 Reference value :  1.26882e-07
 Reference value :  2.27432e-07
 Reference value :  3.25477e-07
No. of Data Rows : 68032

  Measurements for Transient Analysis

tphl                =  -6.87160e-11 targ=  2.78511e-08 trig=  2.79198e-08
tplh                =  1.27493e-09 targ=  1.07034e-07 trig=  1.05759e-07
i_vdd_avg           =  -4.19462e-07 from=  1.00000e-08 to=  3.30002e-07
power_avg_uw        =  7.75419e-01


Total analysis time (seconds) = 0.881412

Total elapsed time (seconds) = 1.082 

Total DRAM available = 16384.000 MB.
DRAM currently available =  259.359 MB.
Maximum ngspice program size =   27.078 MB.
Current ngspice program size =   27.078 MB.

