
Note: Compatibility modes selected: hs a


Circuit: SKY130 library cell oai21_1 A1_to_Y__A2=0,B1=1

option SCALE: Scale is set to 1e-06 for instance and model parameters
Doing analysis at TEMP = 84.827949 and TNOM = 27.000000

Using KLU as Direct Linear Solver
 Reference value :  2.88725e-08
 Reference value :  1.29755e-07
 Reference value :  2.26736e-07
 Reference value :  3.28500e-07
No. of Data Rows : 68034

  Measurements for Transient Analysis

tphl                =  1.68769e-09 targ=  3.12870e-08 trig=  2.95993e-08
tplh                =  4.08959e-09 targ=  1.14888e-07 trig=  1.10798e-07
i_vdd_avg           =  -2.08823e-06 from=  1.00000e-08 to=  3.30005e-07
power_avg_uw        =  3.53523e+00


Total analysis time (seconds) = 0.869626

Total elapsed time (seconds) = 1.039 

Total DRAM available = 16384.000 MB.
DRAM currently available =   90.500 MB.
Maximum ngspice program size =   25.844 MB.
Current ngspice program size =   25.844 MB.

