
Note: Compatibility modes selected: hs a


Circuit: SKY130 library cell nor2_4 A_to_Y__B=0

option SCALE: Scale is set to 1e-06 for instance and model parameters
Doing analysis at TEMP = 92.580208 and TNOM = 27.000000

Using KLU as Direct Linear Solver
 Reference value :  1.50364e-08
 Reference value :  5.95020e-08
 Reference value :  1.00247e-07
 Reference value :  1.43521e-07
 Reference value :  1.91463e-07
 Reference value :  2.38562e-07
 Reference value :  2.84851e-07
 Reference value :  3.28371e-07
No. of Data Rows : 68032

  Measurements for Transient Analysis

tphl                =  8.16416e-11 targ=  2.92589e-08 trig=  2.91772e-08
tplh                =  1.45784e-09 targ=  1.10990e-07 trig=  1.09532e-07
i_vdd_avg           =  -2.05969e-06 from=  1.00000e-08 to=  3.30001e-07
power_avg_uw        =  3.91470e+00


Total analysis time (seconds) = 1.93241

Total elapsed time (seconds) = 2.087 

Total DRAM available = 16384.000 MB.
DRAM currently available =   81.875 MB.
Maximum ngspice program size =   24.484 MB.
Current ngspice program size =   24.484 MB.

