
Note: Compatibility modes selected: hs a


Circuit: SKY130 library cell inv_4 A_to_Y

option SCALE: Scale is set to 1e-06 for instance and model parameters
Doing analysis at TEMP = 98.493133 and TNOM = 27.000000

Using KLU as Direct Linear Solver
 Reference value :  3.57739e-08
 Reference value :  1.30280e-07
 Reference value :  2.21334e-07
 Reference value :  3.13980e-07
No. of Data Rows : 68030

  Measurements for Transient Analysis

tphl                =  -4.95435e-10 targ=  2.92228e-08 trig=  2.97182e-08
tplh                =  1.13924e-09 targ=  1.12294e-07 trig=  1.11155e-07
i_vdd_avg           =  -4.14388e-06 from=  1.00000e-08 to=  3.30000e-07
power_avg_uw        =  7.54673e+00


Total analysis time (seconds) = 0.934053

Total elapsed time (seconds) = 1.080 

Total DRAM available = 16384.000 MB.
DRAM currently available =  135.562 MB.
Maximum ngspice program size =   26.547 MB.
Current ngspice program size =   26.547 MB.

