
Note: Compatibility modes selected: hs a


Circuit: SKY130 library cell inv_4 A_to_Y

option SCALE: Scale is set to 1e-06 for instance and model parameters
Doing analysis at TEMP = 9.060575 and TNOM = 27.000000

Using KLU as Direct Linear Solver
 Reference value :  3.32232e-08
 Reference value :  1.33289e-07
 Reference value :  2.28188e-07
 Reference value :  3.23879e-07
No. of Data Rows : 68032

  Measurements for Transient Analysis

tphl                =  1.94278e-10 targ=  2.63046e-08 trig=  2.61104e-08
tplh                =  1.08377e-09 targ=  1.01415e-07 trig=  1.00331e-07
i_vdd_avg           =  -1.69349e-06 from=  1.00000e-08 to=  3.30004e-07
power_avg_uw        =  2.93813e+00


Total analysis time (seconds) = 0.906997

Total elapsed time (seconds) = 1.048 

Total DRAM available = 16384.000 MB.
DRAM currently available =   82.828 MB.
Maximum ngspice program size =   26.953 MB.
Current ngspice program size =   26.953 MB.

