
Note: Compatibility modes selected: hs a


Circuit: SKY130 library cell nor2_1 A_to_Y__B=0

option SCALE: Scale is set to 1e-06 for instance and model parameters
Doing analysis at TEMP = 53.747836 and TNOM = 27.000000

Using KLU as Direct Linear Solver
 Reference value :  4.63213e-08
 Reference value :  1.87663e-07
 Reference value :  3.35015e-07
No. of Data Rows : 68032

  Measurements for Transient Analysis

tphl                =  1.32635e-09 targ=  2.84883e-08 trig=  2.71619e-08
tplh                =  2.63284e-09 targ=  1.06119e-07 trig=  1.03486e-07
i_vdd_avg           =  -5.60122e-07 from=  1.00000e-08 to=  3.30000e-07
power_avg_uw        =  9.75139e-01


Total analysis time (seconds) = 0.60324

Total elapsed time (seconds) = 0.761 

Total DRAM available = 16384.000 MB.
DRAM currently available =   72.312 MB.
Maximum ngspice program size =   25.641 MB.
Current ngspice program size =   25.641 MB.

