
Note: Compatibility modes selected: hs a


Circuit: SKY130 library cell inv_4 A_to_Y

option SCALE: Scale is set to 1e-06 for instance and model parameters
Doing analysis at TEMP = 19.473188 and TNOM = 27.000000

Using KLU as Direct Linear Solver
 Reference value :  3.41745e-08
 Reference value :  1.27131e-07
 Reference value :  2.16074e-07
 Reference value :  3.08616e-07
No. of Data Rows : 68030

  Measurements for Transient Analysis

tphl                =  1.03441e-10 targ=  2.73794e-08 trig=  2.72760e-08
tplh                =  1.12201e-09 targ=  1.04950e-07 trig=  1.03828e-07
i_vdd_avg           =  -1.44881e-06 from=  1.00000e-08 to=  3.30001e-07
power_avg_uw        =  2.83381e+00


Total analysis time (seconds) = 0.949369

Total elapsed time (seconds) = 1.102 

Total DRAM available = 16384.000 MB.
DRAM currently available =  118.641 MB.
Maximum ngspice program size =   26.109 MB.
Current ngspice program size =   26.109 MB.

