
Note: Compatibility modes selected: hs a


Circuit: SKY130 library cell oai21_1 A1_to_Y__A2=0,B1=1

option SCALE: Scale is set to 1e-06 for instance and model parameters
Doing analysis at TEMP = 32.314024 and TNOM = 27.000000

Using KLU as Direct Linear Solver
 Reference value :  3.53704e-08
 Reference value :  1.37113e-07
 Reference value :  2.40665e-07
No. of Data Rows : 68034

  Measurements for Transient Analysis

tphl                =  1.63492e-09 targ=  2.85239e-08 trig=  2.68889e-08
tplh                =  3.51021e-09 targ=  1.06177e-07 trig=  1.02667e-07
i_vdd_avg           =  -2.07129e-06 from=  1.00000e-08 to=  3.30003e-07
power_avg_uw        =  3.87037e+00


Total analysis time (seconds) = 0.844524

Total elapsed time (seconds) = 1.000 

Total DRAM available = 16384.000 MB.
DRAM currently available =  124.594 MB.
Maximum ngspice program size =   25.906 MB.
Current ngspice program size =   25.906 MB.

