
Note: Compatibility modes selected: hs a


Circuit: SKY130 library cell nand2_1 A_to_Y__B=1

option SCALE: Scale is set to 1e-06 for instance and model parameters
Doing analysis at TEMP = 44.397159 and TNOM = 27.000000

Using KLU as Direct Linear Solver
 Reference value :  5.39317e-08
 Reference value :  2.22952e-07
No. of Data Rows : 68032

  Measurements for Transient Analysis

tphl                =  9.99399e-10 targ=  2.64565e-08 trig=  2.54571e-08
tplh                =  1.54864e-09 targ=  9.99200e-08 trig=  9.83714e-08
i_vdd_avg           =  -1.89327e-06 from=  1.00000e-08 to=  3.30001e-07
power_avg_uw        =  3.44513e+00


Total analysis time (seconds) = 0.529508

Total elapsed time (seconds) = 0.686 

Total DRAM available = 16384.000 MB.
DRAM currently available =  126.391 MB.
Maximum ngspice program size =   26.172 MB.
Current ngspice program size =   26.172 MB.

