
Note: Compatibility modes selected: hs a


Circuit: SKY130 library cell oai21_1 A1_to_Y__A2=0,B1=1

option SCALE: Scale is set to 1e-06 for instance and model parameters
Doing analysis at TEMP = 24.239592 and TNOM = 27.000000

Using KLU as Direct Linear Solver
 Reference value :  2.79875e-08
 Reference value :  1.27582e-07
 Reference value :  2.27427e-07
 Reference value :  3.30832e-07
No. of Data Rows : 68032

  Measurements for Transient Analysis

tphl                =  1.20940e-09 targ=  2.90892e-08 trig=  2.78798e-08
tplh                =  2.91921e-09 targ=  1.08558e-07 trig=  1.05639e-07
i_vdd_avg           =  -1.08916e-06 from=  1.00000e-08 to=  3.30002e-07
power_avg_uw        =  2.01371e+00


Total analysis time (seconds) = 0.884139

Total elapsed time (seconds) = 1.057 

Total DRAM available = 16384.000 MB.
DRAM currently available =   48.703 MB.
Maximum ngspice program size =   26.734 MB.
Current ngspice program size =   26.734 MB.

