
Note: Compatibility modes selected: hs a


Circuit: SKY130 library cell nand2_1 A_to_Y__B=1

option SCALE: Scale is set to 1e-06 for instance and model parameters
Doing analysis at TEMP = -11.077414 and TNOM = 27.000000

Using KLU as Direct Linear Solver
 Reference value :  5.96116e-08
 Reference value :  2.20422e-07
No. of Data Rows : 68032

  Measurements for Transient Analysis

tphl                =  3.06491e-10 targ=  2.49385e-08 trig=  2.46320e-08
tplh                =  6.08310e-10 targ=  9.65044e-08 trig=  9.58961e-08
i_vdd_avg           =  -3.62368e-07 from=  1.00000e-08 to=  3.30001e-07
power_avg_uw        =  5.93759e-01


Total analysis time (seconds) = 0.561653

Total elapsed time (seconds) = 0.712 

Total DRAM available = 16384.000 MB.
DRAM currently available =  111.547 MB.
Maximum ngspice program size =   24.812 MB.
Current ngspice program size =   24.812 MB.

