
Note: Compatibility modes selected: hs a


Circuit: SKY130 library cell inv_4 A_to_Y

option SCALE: Scale is set to 1e-06 for instance and model parameters
Doing analysis at TEMP = 90.090231 and TNOM = 27.000000

Using KLU as Direct Linear Solver
 Reference value :  3.79486e-08
 Reference value :  1.23325e-07
 Reference value :  2.09479e-07
 Reference value :  3.02470e-07
No. of Data Rows : 68032

  Measurements for Transient Analysis

tphl                =  7.44767e-10 targ=  3.02578e-08 trig=  2.95130e-08
tplh                =  1.65526e-09 targ=  1.12194e-07 trig=  1.10539e-07
i_vdd_avg           =  -1.05974e-06 from=  1.00000e-08 to=  3.30005e-07
power_avg_uw        =  1.92363e+00


Total analysis time (seconds) = 0.970762

Total elapsed time (seconds) = 1.114 

Total DRAM available = 16384.000 MB.
DRAM currently available =  109.312 MB.
Maximum ngspice program size =   26.484 MB.
Current ngspice program size =   26.484 MB.

