
Note: Compatibility modes selected: hs a


Circuit: SKY130 library cell nand3_1 A_to_Y__B=1,C=1

option SCALE: Scale is set to 1e-06 for instance and model parameters
Doing analysis at TEMP = -11.353370 and TNOM = 27.000000

Using KLU as Direct Linear Solver
 Reference value :  2.93025e-08
 Reference value :  1.30944e-07
 Reference value :  2.27776e-07
 Reference value :  3.26949e-07
No. of Data Rows : 68034

  Measurements for Transient Analysis

tphl                =  2.44334e-09 targ=  3.12574e-08 trig=  2.88140e-08
tplh                =  3.95434e-09 targ=  1.12396e-07 trig=  1.08442e-07
i_vdd_avg           =  -1.77193e-06 from=  1.00000e-08 to=  3.30004e-07
power_avg_uw        =  3.16266e+00


Total analysis time (seconds) = 0.867417

Total elapsed time (seconds) = 1.041 

Total DRAM available = 16384.000 MB.
DRAM currently available =  259.359 MB.
Maximum ngspice program size =   25.078 MB.
Current ngspice program size =   25.078 MB.

