
Note: Compatibility modes selected: hs a


Circuit: SKY130 library cell xor2_4 A_to_X__B=0

option SCALE: Scale is set to 1e-06 for instance and model parameters
Doing analysis at TEMP = -8.788835 and TNOM = 27.000000

Using KLU as Direct Linear Solver
 Reference value :  4.33140e-09
 Reference value :  2.08314e-08
 Reference value :  3.85759e-08
 Reference value :  5.60759e-08
 Reference value :  7.24409e-08
 Reference value :  8.90459e-08
 Reference value :  1.05674e-07
 Reference value :  1.22784e-07
 Reference value :  1.39269e-07
 Reference value :  1.55894e-07
 Reference value :  1.72764e-07
 Reference value :  1.89501e-07
 Reference value :  2.06026e-07
 Reference value :  2.22786e-07
 Reference value :  2.39641e-07
 Reference value :  2.55854e-07
 Reference value :  2.73034e-07
 Reference value :  2.89889e-07
 Reference value :  3.06714e-07
 Reference value :  3.23539e-07
No. of Data Rows : 68036

  Measurements for Transient Analysis

tplh                =  7.75050e-10 targ=  2.48617e-08 trig=  2.40867e-08
tphl                =  2.76987e-10 targ=  9.45370e-08 trig=  9.42600e-08
i_vdd_avg           =  -2.29934e-06 from=  1.00000e-08 to=  3.30004e-07
power_avg_uw        =  4.07370e+00


Total analysis time (seconds) = 5.15335

Total elapsed time (seconds) = 5.349 

Total DRAM available = 16384.000 MB.
DRAM currently available =  133.500 MB.
Maximum ngspice program size =   29.047 MB.
Current ngspice program size =   29.047 MB.

