Note: Starting dynamic gmin stepping
Note: Dynamic gmin stepping completed

Note: Compatibility modes selected: hs a


Circuit: SKY130 library cell mux2_4 A0_to_X__A1=0,S=0

option SCALE: Scale is set to 1e-06 for instance and model parameters
Doing analysis at TEMP = -21.552946 and TNOM = 27.000000

Using KLU as Direct Linear Solver
 Reference value :  1.13314e-08
 Reference value :  4.57663e-08
 Reference value :  8.20363e-08
 Reference value :  1.16885e-07
 Reference value :  1.51955e-07
 Reference value :  1.90376e-07
 Reference value :  2.26111e-07
 Reference value :  2.61716e-07
 Reference value :  2.98240e-07
 Reference value :  3.33475e-07
No. of Data Rows : 68032

  Measurements for Transient Analysis

tplh                =  5.98033e-11 targ=  2.67792e-08 trig=  2.67194e-08
tphl                =  1.05983e-09 targ=  1.03218e-07 trig=  1.02158e-07
i_vdd_avg           =  -1.73254e-06 from=  1.00000e-08 to=  3.30000e-07
power_avg_uw        =  3.27220e+00


Total analysis time (seconds) = 2.44258

Total elapsed time (seconds) = 2.606 

Total DRAM available = 16384.000 MB.
DRAM currently available =  121.156 MB.
Maximum ngspice program size =   28.219 MB.
Current ngspice program size =   28.219 MB.

