
Note: Compatibility modes selected: hs a


Circuit: SKY130 library cell mux2_4 A0_to_X__A1=0,S=0

option SCALE: Scale is set to 1e-06 for instance and model parameters
Doing analysis at TEMP = 36.630898 and TNOM = 27.000000

Using KLU as Direct Linear Solver
 Reference value :  1.07714e-08
 Reference value :  4.72298e-08
 Reference value :  8.38598e-08
 Reference value :  1.18147e-07
 Reference value :  1.53027e-07
 Reference value :  1.88465e-07
 Reference value :  2.25335e-07
 Reference value :  2.62077e-07
 Reference value :  2.97737e-07
 Reference value :  3.33297e-07
No. of Data Rows : 68030

  Measurements for Transient Analysis

tplh                =  3.13756e-10 targ=  2.58849e-08 trig=  2.55712e-08
tphl                =  7.98718e-10 targ=  9.95122e-08 trig=  9.87135e-08
i_vdd_avg           =  -1.72727e-06 from=  1.00000e-08 to=  3.30002e-07
power_avg_uw        =  3.00124e+00


Total analysis time (seconds) = 2.43671

Total elapsed time (seconds) = 2.604 

Total DRAM available = 16384.000 MB.
DRAM currently available =  185.219 MB.
Maximum ngspice program size =   27.312 MB.
Current ngspice program size =   27.312 MB.

