
Note: Compatibility modes selected: hs a


Circuit: SKY130 library cell oai21_1 A1_to_Y__A2=0,B1=1

option SCALE: Scale is set to 1e-06 for instance and model parameters
Doing analysis at TEMP = -27.162400 and TNOM = 27.000000

Using KLU as Direct Linear Solver
 Reference value :  3.02852e-08
 Reference value :  1.30453e-07
 Reference value :  2.27140e-07
 Reference value :  3.20263e-07
No. of Data Rows : 68034

  Measurements for Transient Analysis

tphl                =  7.30205e-10 targ=  2.62466e-08 trig=  2.55164e-08
tplh                =  1.98651e-09 targ=  1.00536e-07 trig=  9.85491e-08
i_vdd_avg           =  -1.12333e-06 from=  1.00000e-08 to=  3.30003e-07
power_avg_uw        =  1.96066e+00


Total analysis time (seconds) = 0.894787

Total elapsed time (seconds) = 1.058 

Total DRAM available = 16384.000 MB.
DRAM currently available =  101.594 MB.
Maximum ngspice program size =   26.250 MB.
Current ngspice program size =   26.250 MB.

