
Note: Compatibility modes selected: hs a


Circuit: SKY130 library cell oai21_1 A1_to_Y__A2=0,B1=1

option SCALE: Scale is set to 1e-06 for instance and model parameters
Doing analysis at TEMP = 94.003542 and TNOM = 27.000000

Using KLU as Direct Linear Solver
 Reference value :  3.74948e-08
 Reference value :  1.38427e-07
 Reference value :  2.37225e-07
 Reference value :  3.32677e-07
No. of Data Rows : 68030

  Measurements for Transient Analysis

tphl                =  2.66011e-10 targ=  2.66547e-08 trig=  2.63886e-08
tplh                =  1.06268e-09 targ=  1.02229e-07 trig=  1.01166e-07
i_vdd_avg           =  -5.29252e-07 from=  1.00000e-08 to=  3.30002e-07
power_avg_uw        =  9.39438e-01


Total analysis time (seconds) = 0.874099

Total elapsed time (seconds) = 1.017 

Total DRAM available = 16384.000 MB.
DRAM currently available =  123.750 MB.
Maximum ngspice program size =   24.484 MB.
Current ngspice program size =   24.484 MB.

