
Note: Compatibility modes selected: hs a


Circuit: SKY130 library cell oai21_1 A1_to_Y__A2=0,B1=1

option SCALE: Scale is set to 1e-06 for instance and model parameters
Doing analysis at TEMP = 72.270522 and TNOM = 27.000000

Using KLU as Direct Linear Solver
 Reference value :  3.26111e-08
 Reference value :  1.35010e-07
 Reference value :  2.35766e-07
 Reference value :  3.24000e-07
No. of Data Rows : 68034

  Measurements for Transient Analysis

tphl                =  2.95313e-09 targ=  3.07049e-08 trig=  2.77518e-08
tplh                =  5.22017e-09 targ=  1.10476e-07 trig=  1.05255e-07
i_vdd_avg           =  -1.36819e-06 from=  1.00000e-08 to=  3.30005e-07
power_avg_uw        =  2.22746e+00


Total analysis time (seconds) = 0.891363

Total elapsed time (seconds) = 1.042 

Total DRAM available = 16384.000 MB.
DRAM currently available =  101.594 MB.
Maximum ngspice program size =   24.719 MB.
Current ngspice program size =   24.719 MB.

