
Note: Compatibility modes selected: hs a


Circuit: SKY130 library cell nand3_1 A_to_Y__B=1,C=1

option SCALE: Scale is set to 1e-06 for instance and model parameters
Doing analysis at TEMP = -21.761484 and TNOM = 27.000000

Using KLU as Direct Linear Solver
 Reference value :  3.26733e-08
 Reference value :  1.27744e-07
 Reference value :  2.31988e-07
 Reference value :  3.33249e-07
No. of Data Rows : 68032

  Measurements for Transient Analysis

tphl                =  1.29425e-09 targ=  2.74546e-08 trig=  2.61604e-08
tplh                =  2.17954e-09 targ=  1.02661e-07 trig=  1.00481e-07
i_vdd_avg           =  -1.66719e-06 from=  1.00000e-08 to=  3.30004e-07
power_avg_uw        =  2.87014e+00


Total analysis time (seconds) = 0.872358

Total elapsed time (seconds) = 1.030 

Total DRAM available = 16384.000 MB.
DRAM currently available =  151.500 MB.
Maximum ngspice program size =   26.969 MB.
Current ngspice program size =   26.969 MB.

