
Note: Compatibility modes selected: hs a


Circuit: SKY130 library cell oai21_4 A1_to_Y__A2=0,B1=1

option SCALE: Scale is set to 1e-06 for instance and model parameters
Doing analysis at TEMP = 34.521676 and TNOM = 27.000000

Using KLU as Direct Linear Solver
 Reference value :  7.78140e-09
 Reference value :  3.48325e-08
 Reference value :  6.22659e-08
 Reference value :  8.97759e-08
 Reference value :  1.18319e-07
 Reference value :  1.48574e-07
 Reference value :  1.77404e-07
 Reference value :  2.06071e-07
 Reference value :  2.34556e-07
 Reference value :  2.62446e-07
 Reference value :  2.89249e-07
 Reference value :  3.15819e-07
No. of Data Rows : 68034

  Measurements for Transient Analysis

tphl                =  1.25541e-09 targ=  3.11771e-08 trig=  2.99217e-08
tplh                =  2.94197e-09 targ=  1.14707e-07 trig=  1.11765e-07
i_vdd_avg           =  -2.49781e-06 from=  1.00000e-08 to=  3.30004e-07
power_avg_uw        =  4.93907e+00


Total analysis time (seconds) = 3.13722

Total elapsed time (seconds) = 3.309 

Total DRAM available = 16384.000 MB.
DRAM currently available =  138.266 MB.
Maximum ngspice program size =   25.938 MB.
Current ngspice program size =   25.938 MB.

