
Note: Compatibility modes selected: hs a


Circuit: SKY130 library cell nand3_4 A_to_Y__B=1,C=1

option SCALE: Scale is set to 1e-06 for instance and model parameters
Doing analysis at TEMP = 48.800695 and TNOM = 27.000000

Using KLU as Direct Linear Solver
 Reference value :  5.33640e-09
 Reference value :  3.29620e-08
 Reference value :  6.26420e-08
 Reference value :  9.03070e-08
 Reference value :  1.17961e-07
 Reference value :  1.45251e-07
 Reference value :  1.73491e-07
 Reference value :  2.02622e-07
 Reference value :  2.29917e-07
 Reference value :  2.58482e-07
 Reference value :  2.84926e-07
 Reference value :  3.12496e-07
No. of Data Rows : 68032

  Measurements for Transient Analysis

tphl                =  1.55219e-09 targ=  2.89194e-08 trig=  2.73672e-08
tplh                =  2.09994e-09 targ=  1.06202e-07 trig=  1.04102e-07
i_vdd_avg           =  -1.05775e-06 from=  1.00000e-08 to=  3.30001e-07
power_avg_uw        =  1.71930e+00


Total analysis time (seconds) = 3.12828

Total elapsed time (seconds) = 3.310 

Total DRAM available = 16384.000 MB.
DRAM currently available =  176.062 MB.
Maximum ngspice program size =   25.484 MB.
Current ngspice program size =   25.484 MB.

