
Note: Compatibility modes selected: hs a


Circuit: SKY130 library cell nand3_4 A_to_Y__B=1,C=1

option SCALE: Scale is set to 1e-06 for instance and model parameters
Doing analysis at TEMP = -19.417831 and TNOM = 27.000000

Using KLU as Direct Linear Solver
 Reference value :  7.77640e-09
 Reference value :  3.67565e-08
 Reference value :  6.55265e-08
 Reference value :  9.48215e-08
 Reference value :  1.22350e-07
 Reference value :  1.47520e-07
 Reference value :  1.75795e-07
 Reference value :  2.03036e-07
 Reference value :  2.28451e-07
 Reference value :  2.54346e-07
 Reference value :  2.82860e-07
 Reference value :  3.11455e-07
No. of Data Rows : 68032

  Measurements for Transient Analysis

tphl                =  7.16678e-10 targ=  2.91037e-08 trig=  2.83870e-08
tplh                =  1.80950e-09 targ=  1.08970e-07 trig=  1.07161e-07
i_vdd_avg           =  -6.84501e-07 from=  1.00000e-08 to=  3.30000e-07
power_avg_uw        =  1.28802e+00


Total analysis time (seconds) = 3.14474

Total elapsed time (seconds) = 3.335 

Total DRAM available = 16384.000 MB.
DRAM currently available =  107.156 MB.
Maximum ngspice program size =   28.125 MB.
Current ngspice program size =   28.125 MB.

