
Note: Compatibility modes selected: hs a


Circuit: SKY130 library cell mux2_1 A0_to_X__A1=0,S=0

option SCALE: Scale is set to 1e-06 for instance and model parameters
Doing analysis at TEMP = 92.269525 and TNOM = 27.000000

Using KLU as Direct Linear Solver
 Reference value :  1.13764e-08
 Reference value :  6.40096e-08
 Reference value :  1.09792e-07
 Reference value :  1.58077e-07
 Reference value :  2.06370e-07
 Reference value :  2.53880e-07
 Reference value :  3.03917e-07
No. of Data Rows : 68030

  Measurements for Transient Analysis

tplh                =  1.65992e-09 targ=  2.75460e-08 trig=  2.58861e-08
tphl                =  1.55305e-09 targ=  1.01211e-07 trig=  9.96582e-08
i_vdd_avg           =  -2.00713e-06 from=  1.00000e-08 to=  3.30002e-07
power_avg_uw        =  3.29895e+00


Total analysis time (seconds) = 1.99243

Total elapsed time (seconds) = 2.174 

Total DRAM available = 16384.000 MB.
DRAM currently available =  129.203 MB.
Maximum ngspice program size =   25.141 MB.
Current ngspice program size =   25.141 MB.

