
Note: Compatibility modes selected: hs a


Circuit: SKY130 library cell mux2_1 A0_to_X__A1=0,S=0

option SCALE: Scale is set to 1e-06 for instance and model parameters
Doing analysis at TEMP = -1.194158 and TNOM = 27.000000

Using KLU as Direct Linear Solver
 Reference value :  1.66314e-08
 Reference value :  6.74232e-08
 Reference value :  1.23034e-07
 Reference value :  1.74629e-07
 Reference value :  2.30228e-07
 Reference value :  2.84964e-07
 Reference value :  3.39194e-07
No. of Data Rows : 68032

  Measurements for Transient Analysis

tplh                =  1.54759e-09 targ=  2.99955e-08 trig=  2.84479e-08
tphl                =  2.19270e-09 targ=  1.09536e-07 trig=  1.07344e-07
i_vdd_avg           =  -1.84892e-06 from=  1.00000e-08 to=  3.30004e-07
power_avg_uw        =  3.15779e+00


Total analysis time (seconds) = 1.61779

Total elapsed time (seconds) = 1.796 

Total DRAM available = 16384.000 MB.
DRAM currently available =  151.891 MB.
Maximum ngspice program size =   27.016 MB.
Current ngspice program size =   27.016 MB.

