
Note: Compatibility modes selected: hs a


Circuit: SKY130 library cell oai21_1 A1_to_Y__A2=0,B1=1

option SCALE: Scale is set to 1e-06 for instance and model parameters
Doing analysis at TEMP = 61.331883 and TNOM = 27.000000

Using KLU as Direct Linear Solver
 Reference value :  3.92876e-08
 Reference value :  1.29493e-07
 Reference value :  2.30498e-07
 Reference value :  3.33098e-07
No. of Data Rows : 68032

  Measurements for Transient Analysis

tphl                =  5.49033e-10 targ=  2.95716e-08 trig=  2.90225e-08
tplh                =  2.02646e-09 targ=  1.11094e-07 trig=  1.09068e-07
i_vdd_avg           =  -6.01835e-07 from=  1.00000e-08 to=  3.30003e-07
power_avg_uw        =  1.13729e+00


Total analysis time (seconds) = 0.873015

Total elapsed time (seconds) = 1.021 

Total DRAM available = 16384.000 MB.
DRAM currently available =   98.250 MB.
Maximum ngspice program size =   25.781 MB.
Current ngspice program size =   25.781 MB.

