
Note: Compatibility modes selected: hs a


Circuit: SKY130 library cell xor2_4 A_to_X__B=0

option SCALE: Scale is set to 1e-06 for instance and model parameters
Doing analysis at TEMP = 34.091304 and TNOM = 27.000000

Using KLU as Direct Linear Solver
 Reference value :  5.15640e-09
 Reference value :  2.21364e-08
 Reference value :  3.85375e-08
 Reference value :  5.54825e-08
 Reference value :  7.30825e-08
 Reference value :  8.92275e-08
 Reference value :  1.05472e-07
 Reference value :  1.22732e-07
 Reference value :  1.39317e-07
 Reference value :  1.56662e-07
 Reference value :  1.75317e-07
 Reference value :  1.92817e-07
 Reference value :  2.10357e-07
 Reference value :  2.27932e-07
 Reference value :  2.45077e-07
 Reference value :  2.61537e-07
 Reference value :  2.78572e-07
 Reference value :  2.95352e-07
 Reference value :  3.12752e-07
 Reference value :  3.29267e-07
No. of Data Rows : 68032

  Measurements for Transient Analysis

tplh                =  8.30740e-10 targ=  2.79932e-08 trig=  2.71625e-08
tphl                =  1.14276e-09 targ=  1.04630e-07 trig=  1.03487e-07
i_vdd_avg           =  -2.01044e-06 from=  1.00000e-08 to=  3.30002e-07
power_avg_uw        =  3.31996e+00


Total analysis time (seconds) = 5.15717

Total elapsed time (seconds) = 5.335 

Total DRAM available = 16384.000 MB.
DRAM currently available =  119.844 MB.
Maximum ngspice program size =   30.453 MB.
Current ngspice program size =   12.328 MB.

