
Note: Compatibility modes selected: hs a


Circuit: SKY130 library cell aoi21_1 A1_to_Y__A2=1,B1=0

option SCALE: Scale is set to 1e-06 for instance and model parameters
Doing analysis at TEMP = 47.358747 and TNOM = 27.000000

Using KLU as Direct Linear Solver
 Reference value :  3.50112e-08
 Reference value :  1.37005e-07
 Reference value :  2.33101e-07
 Reference value :  3.26185e-07
No. of Data Rows : 68034

  Measurements for Transient Analysis

tphl                =  1.61043e-10 targ=  2.77354e-08 trig=  2.75744e-08
tplh                =  1.12791e-09 targ=  1.05851e-07 trig=  1.04723e-07
i_vdd_avg           =  -2.64690e-07 from=  1.00000e-08 to=  3.30005e-07
power_avg_uw        =  4.98767e-01


Total analysis time (seconds) = 0.887384

Total elapsed time (seconds) = 1.043 

Total DRAM available = 16384.000 MB.
DRAM currently available =  169.766 MB.
Maximum ngspice program size =   28.391 MB.
Current ngspice program size =   28.391 MB.

