
Note: Compatibility modes selected: hs a


Circuit: SKY130 library cell nor2_4 A_to_Y__B=0

option SCALE: Scale is set to 1e-06 for instance and model parameters
Doing analysis at TEMP = -31.810775 and TNOM = 27.000000

Using KLU as Direct Linear Solver
 Reference value :  1.45514e-08
 Reference value :  6.22921e-08
 Reference value :  1.10182e-07
 Reference value :  1.57237e-07
 Reference value :  2.00512e-07
 Reference value :  2.44732e-07
 Reference value :  2.88397e-07
 Reference value :  3.33802e-07
No. of Data Rows : 68032

  Measurements for Transient Analysis

tphl                =  -4.12538e-10 targ=  2.92372e-08 trig=  2.96498e-08
tplh                =  1.53486e-09 targ=  1.12484e-07 trig=  1.10949e-07
i_vdd_avg           =  -7.73769e-07 from=  1.00000e-08 to=  3.30002e-07
power_avg_uw        =  1.52014e+00


Total analysis time (seconds) = 1.88789

Total elapsed time (seconds) = 2.044 

Total DRAM available = 16384.000 MB.
DRAM currently available =  104.156 MB.
Maximum ngspice program size =   26.406 MB.
Current ngspice program size =   26.406 MB.

