
Note: Compatibility modes selected: hs a


Circuit: SKY130 library cell mux2_4 A0_to_X__A1=0,S=0

option SCALE: Scale is set to 1e-06 for instance and model parameters
Doing analysis at TEMP = 94.226875 and TNOM = 27.000000

Using KLU as Direct Linear Solver
 Reference value :  9.88640e-09
 Reference value :  4.73719e-08
 Reference value :  8.28169e-08
 Reference value :  1.18271e-07
 Reference value :  1.55471e-07
 Reference value :  1.90812e-07
 Reference value :  2.27242e-07
 Reference value :  2.62081e-07
 Reference value :  2.97736e-07
 Reference value :  3.31306e-07
No. of Data Rows : 68032

  Measurements for Transient Analysis

tplh                =  6.94386e-10 targ=  2.57766e-08 trig=  2.50822e-08
tphl                =  8.88192e-10 targ=  9.81348e-08 trig=  9.72466e-08
i_vdd_avg           =  -2.01529e-06 from=  1.00000e-08 to=  3.30001e-07
power_avg_uw        =  3.35048e+00


Total analysis time (seconds) = 2.44604

Total elapsed time (seconds) = 2.638 

Total DRAM available = 16384.000 MB.
DRAM currently available =  219.922 MB.
Maximum ngspice program size =   26.766 MB.
Current ngspice program size =   26.766 MB.

