
Note: Compatibility modes selected: hs a


Circuit: SKY130 library cell nand3_1 A_to_Y__B=1,C=1

option SCALE: Scale is set to 1e-06 for instance and model parameters
Doing analysis at TEMP = 73.513117 and TNOM = 27.000000

Using KLU as Direct Linear Solver
 Reference value :  3.30264e-08
 Reference value :  1.31330e-07
 Reference value :  2.32406e-07
 Reference value :  3.32795e-07
No. of Data Rows : 68032

  Measurements for Transient Analysis

tphl                =  7.70439e-10 targ=  2.65699e-08 trig=  2.57995e-08
tplh                =  1.15757e-09 targ=  1.00556e-07 trig=  9.93984e-08
i_vdd_avg           =  -1.18107e-06 from=  1.00000e-08 to=  3.30000e-07
power_avg_uw        =  2.25385e+00


Total analysis time (seconds) = 0.886283

Total elapsed time (seconds) = 1.045 

Total DRAM available = 16384.000 MB.
DRAM currently available =  265.781 MB.
Maximum ngspice program size =   26.766 MB.
Current ngspice program size =   26.766 MB.

