
Note: Compatibility modes selected: hs a


Circuit: SKY130 library cell nor2_4 A_to_Y__B=0

option SCALE: Scale is set to 1e-06 for instance and model parameters
Doing analysis at TEMP = -11.932537 and TNOM = 27.000000

Using KLU as Direct Linear Solver
 Reference value :  1.39414e-08
 Reference value :  5.68461e-08
 Reference value :  1.00406e-07
 Reference value :  1.49145e-07
 Reference value :  1.93926e-07
 Reference value :  2.37566e-07
 Reference value :  2.85050e-07
 Reference value :  3.29240e-07
No. of Data Rows : 68034

  Measurements for Transient Analysis

tphl                =  -7.35223e-12 targ=  2.68670e-08 trig=  2.68743e-08
tplh                =  9.06286e-10 targ=  1.03529e-07 trig=  1.02623e-07
i_vdd_avg           =  -1.36203e-07 from=  1.00000e-08 to=  3.30005e-07
power_avg_uw        =  2.27166e-01


Total analysis time (seconds) = 1.91323

Total elapsed time (seconds) = 2.077 

Total DRAM available = 16384.000 MB.
DRAM currently available =  102.875 MB.
Maximum ngspice program size =   26.781 MB.
Current ngspice program size =   26.781 MB.

