
Note: Compatibility modes selected: hs a


Circuit: SKY130 library cell mux2_1 A0_to_X__A1=0,S=0

option SCALE: Scale is set to 1e-06 for instance and model parameters
Doing analysis at TEMP = 14.175875 and TNOM = 27.000000

Using KLU as Direct Linear Solver
 Reference value :  1.63014e-08
 Reference value :  6.76427e-08
 Reference value :  1.17268e-07
 Reference value :  1.65903e-07
 Reference value :  2.11413e-07
 Reference value :  2.61423e-07
 Reference value :  3.09708e-07
No. of Data Rows : 68032

  Measurements for Transient Analysis

tplh                =  1.28956e-09 targ=  2.78821e-08 trig=  2.65926e-08
tphl                =  1.69758e-09 targ=  1.03475e-07 trig=  1.01778e-07
i_vdd_avg           =  -1.22572e-06 from=  1.00000e-08 to=  3.30003e-07
power_avg_uw        =  2.29669e+00


Total analysis time (seconds) = 1.8662

Total elapsed time (seconds) = 2.038 

Total DRAM available = 16384.000 MB.
DRAM currently available =  153.047 MB.
Maximum ngspice program size =   24.828 MB.
Current ngspice program size =   24.828 MB.

