
Note: Compatibility modes selected: hs a


Circuit: SKY130 library cell nand2_4 A_to_Y__B=1

option SCALE: Scale is set to 1e-06 for instance and model parameters
Doing analysis at TEMP = 41.192871 and TNOM = 27.000000

Using KLU as Direct Linear Solver
 Reference value :  1.52964e-08
 Reference value :  6.07250e-08
 Reference value :  1.06407e-07
 Reference value :  1.53857e-07
 Reference value :  1.99380e-07
 Reference value :  2.45760e-07
 Reference value :  2.93797e-07
No. of Data Rows : 68030

  Measurements for Transient Analysis

tphl                =  2.67899e-10 targ=  2.49741e-08 trig=  2.47062e-08
tplh                =  5.16587e-10 targ=  9.66353e-08 trig=  9.61187e-08
i_vdd_avg           =  -2.24216e-06 from=  1.00000e-08 to=  3.30002e-07
power_avg_uw        =  4.37104e+00


Total analysis time (seconds) = 1.83886

Total elapsed time (seconds) = 1.994 

Total DRAM available = 16384.000 MB.
DRAM currently available =  145.406 MB.
Maximum ngspice program size =   26.250 MB.
Current ngspice program size =   26.250 MB.

