
Note: Compatibility modes selected: hs a


Circuit: SKY130 library cell inv_4 A_to_Y

option SCALE: Scale is set to 1e-06 for instance and model parameters
Doing analysis at TEMP = 1.578559 and TNOM = 27.000000

Using KLU as Direct Linear Solver
 Reference value :  3.29325e-08
 Reference value :  1.22199e-07
 Reference value :  2.27848e-07
 Reference value :  3.26024e-07
No. of Data Rows : 68032

  Measurements for Transient Analysis

tphl                =  -4.00501e-10 targ=  2.86949e-08 trig=  2.90954e-08
tplh                =  1.56887e-09 targ=  1.10855e-07 trig=  1.09286e-07
i_vdd_avg           =  -3.03826e-06 from=  1.00000e-08 to=  3.30004e-07
power_avg_uw        =  5.82021e+00


Total analysis time (seconds) = 0.878577

Total elapsed time (seconds) = 1.042 

Total DRAM available = 16384.000 MB.
DRAM currently available =  125.125 MB.
Maximum ngspice program size =   24.547 MB.
Current ngspice program size =   24.547 MB.

