
Note: Compatibility modes selected: hs a


Circuit: SKY130 library cell oai21_1 A1_to_Y__A2=0,B1=1

option SCALE: Scale is set to 1e-06 for instance and model parameters
Doing analysis at TEMP = 51.105664 and TNOM = 27.000000

Using KLU as Direct Linear Solver
 Reference value :  3.53351e-08
 Reference value :  1.31083e-07
 Reference value :  2.26265e-07
 Reference value :  3.26768e-07
No. of Data Rows : 68034

  Measurements for Transient Analysis

tphl                =  1.01474e-09 targ=  2.63735e-08 trig=  2.53588e-08
tplh                =  2.26513e-09 targ=  1.00342e-07 trig=  9.80764e-08
i_vdd_avg           =  -2.44512e-06 from=  1.00000e-08 to=  3.30003e-07
power_avg_uw        =  4.70405e+00


Total analysis time (seconds) = 0.881986

Total elapsed time (seconds) = 1.045 

Total DRAM available = 16384.000 MB.
DRAM currently available =   90.031 MB.
Maximum ngspice program size =   26.250 MB.
Current ngspice program size =   26.250 MB.

