
Note: Compatibility modes selected: hs a


Circuit: SKY130 library cell aoi21_1 A1_to_Y__A2=1,B1=0

option SCALE: Scale is set to 1e-06 for instance and model parameters
Doing analysis at TEMP = 14.930553 and TNOM = 27.000000

Using KLU as Direct Linear Solver
 Reference value :  3.21789e-08
 Reference value :  1.29130e-07
 Reference value :  2.29074e-07
 Reference value :  3.30955e-07
No. of Data Rows : 68030

  Measurements for Transient Analysis

tphl                =  2.49501e-09 targ=  2.95382e-08 trig=  2.70432e-08
tplh                =  4.79989e-09 targ=  1.07930e-07 trig=  1.03130e-07
i_vdd_avg           =  -1.84560e-06 from=  1.00000e-08 to=  3.30000e-07
power_avg_uw        =  3.36431e+00


Total analysis time (seconds) = 0.870265

Total elapsed time (seconds) = 1.041 

Total DRAM available = 16384.000 MB.
DRAM currently available =  133.797 MB.
Maximum ngspice program size =   29.062 MB.
Current ngspice program size =   29.062 MB.

