
Note: Compatibility modes selected: hs a


Circuit: SKY130 library cell oai21_4 A1_to_Y__A2=0,B1=1

option SCALE: Scale is set to 1e-06 for instance and model parameters
Doing analysis at TEMP = 85.992303 and TNOM = 27.000000

Using KLU as Direct Linear Solver
 Reference value :  6.67140e-09
 Reference value :  3.21204e-08
 Reference value :  5.91704e-08
 Reference value :  8.55154e-08
 Reference value :  1.10488e-07
 Reference value :  1.39138e-07
 Reference value :  1.67858e-07
 Reference value :  1.94255e-07
 Reference value :  2.19885e-07
 Reference value :  2.46240e-07
 Reference value :  2.72188e-07
 Reference value :  2.98293e-07
 Reference value :  3.23633e-07
No. of Data Rows : 68034

  Measurements for Transient Analysis

tphl                =  4.19508e-10 targ=  2.52534e-08 trig=  2.48339e-08
tplh                =  8.86914e-10 targ=  9.73887e-08 trig=  9.65018e-08
i_vdd_avg           =  -2.14135e-06 from=  1.00000e-08 to=  3.30003e-07
power_avg_uw        =  3.56483e+00


Total analysis time (seconds) = 3.5726

Total elapsed time (seconds) = 3.756 

Total DRAM available = 16384.000 MB.
DRAM currently available =  163.984 MB.
Maximum ngspice program size =   26.891 MB.
Current ngspice program size =   26.891 MB.

