
Note: Compatibility modes selected: hs a


Circuit: SKY130 library cell xor2_1 A_to_X__B=0

option SCALE: Scale is set to 1e-06 for instance and model parameters
Doing analysis at TEMP = -15.375047 and TNOM = 27.000000

Using KLU as Direct Linear Solver
 Reference value :  2.23464e-08
 Reference value :  9.05191e-08
 Reference value :  1.56891e-07
 Reference value :  2.24674e-07
 Reference value :  2.85316e-07
No. of Data Rows : 68030

  Measurements for Transient Analysis

tplh                =  3.69715e-09 targ=  3.12130e-08 trig=  2.75158e-08
tphl                =  2.16146e-09 targ=  1.06709e-07 trig=  1.04547e-07
i_vdd_avg           =  -1.34773e-06 from=  1.00000e-08 to=  3.30001e-07
power_avg_uw        =  2.30151e+00


Total analysis time (seconds) = 1.3287

Total elapsed time (seconds) = 1.479 

Total DRAM available = 16384.000 MB.
DRAM currently available =   76.578 MB.
Maximum ngspice program size =   25.656 MB.
Current ngspice program size =   25.656 MB.

