
Note: Compatibility modes selected: hs a


Circuit: SKY130 library cell mux2_1 A0_to_X__A1=0,S=0

option SCALE: Scale is set to 1e-06 for instance and model parameters
Doing analysis at TEMP = -33.396491 and TNOM = 27.000000

Using KLU as Direct Linear Solver
 Reference value :  1.38164e-08
 Reference value :  6.87103e-08
 Reference value :  1.21123e-07
 Reference value :  1.72343e-07
 Reference value :  2.26305e-07
 Reference value :  2.78023e-07
 Reference value :  3.30113e-07
No. of Data Rows : 68034

  Measurements for Transient Analysis

tplh                =  1.45132e-09 targ=  3.01052e-08 trig=  2.86539e-08
tphl                =  2.92652e-09 targ=  1.10888e-07 trig=  1.07962e-07
i_vdd_avg           =  -3.12373e-07 from=  1.00000e-08 to=  3.30003e-07
power_avg_uw        =  5.19492e-01


Total analysis time (seconds) = 1.67156

Total elapsed time (seconds) = 1.846 

Total DRAM available = 16384.000 MB.
DRAM currently available =  119.609 MB.
Maximum ngspice program size =   27.188 MB.
Current ngspice program size =   27.188 MB.

