
Note: Compatibility modes selected: hs a


Circuit: SKY130 library cell xor2_1 A_to_X__B=0

option SCALE: Scale is set to 1e-06 for instance and model parameters
Doing analysis at TEMP = -4.258058 and TNOM = 27.000000

Using KLU as Direct Linear Solver
 Reference value :  2.66125e-08
 Reference value :  9.55193e-08
 Reference value :  1.62206e-07
 Reference value :  2.26904e-07
 Reference value :  2.91391e-07
No. of Data Rows : 68030

  Measurements for Transient Analysis

tplh                =  3.19043e-09 targ=  3.26863e-08 trig=  2.94959e-08
tphl                =  2.11227e-09 targ=  1.12600e-07 trig=  1.10488e-07
i_vdd_avg           =  -2.04367e-06 from=  1.00000e-08 to=  3.30001e-07
power_avg_uw        =  3.88190e+00


Total analysis time (seconds) = 1.2832

Total elapsed time (seconds) = 1.439 

Total DRAM available = 16384.000 MB.
DRAM currently available =   88.172 MB.
Maximum ngspice program size =   26.922 MB.
Current ngspice program size =   26.922 MB.

