
Note: Compatibility modes selected: hs a


Circuit: SKY130 library cell nand2_1 A_to_Y__B=1

option SCALE: Scale is set to 1e-06 for instance and model parameters
Doing analysis at TEMP = 54.363639 and TNOM = 27.000000

Using KLU as Direct Linear Solver
 Reference value :  5.93387e-08
 Reference value :  2.24529e-07
No. of Data Rows : 68032

  Measurements for Transient Analysis

tphl                =  4.79488e-10 targ=  2.48326e-08 trig=  2.43531e-08
tplh                =  6.55504e-10 targ=  9.57148e-08 trig=  9.50593e-08
i_vdd_avg           =  -6.39993e-07 from=  1.00000e-08 to=  3.30005e-07
power_avg_uw        =  1.07456e+00


Total analysis time (seconds) = 0.563937

Total elapsed time (seconds) = 0.698 

Total DRAM available = 16384.000 MB.
DRAM currently available =  126.391 MB.
Maximum ngspice program size =   27.984 MB.
Current ngspice program size =   27.984 MB.

