
Note: Compatibility modes selected: hs a


Circuit: SKY130 library cell xor2_1 A_to_X__B=0

option SCALE: Scale is set to 1e-06 for instance and model parameters
Doing analysis at TEMP = 121.312830 and TNOM = 27.000000

Using KLU as Direct Linear Solver
 Reference value :  1.94914e-08
 Reference value :  9.37078e-08
 Reference value :  1.62973e-07
 Reference value :  2.30258e-07
 Reference value :  2.96273e-07
No. of Data Rows : 68032

  Measurements for Transient Analysis

tplh                =  3.81971e-09 targ=  2.78873e-08 trig=  2.40676e-08
tphl                =  1.09951e-09 targ=  9.53024e-08 trig=  9.42029e-08
i_vdd_avg           =  -1.81680e-06 from=  1.00000e-08 to=  3.30003e-07
power_avg_uw        =  2.97359e+00


Total analysis time (seconds) = 1.25756

Total elapsed time (seconds) = 1.427 

Total DRAM available = 16384.000 MB.
DRAM currently available =  152.172 MB.
Maximum ngspice program size =   25.359 MB.
Current ngspice program size =   25.359 MB.

