
Note: Compatibility modes selected: hs a


Circuit: SKY130 library cell inv_4 A_to_Y

option SCALE: Scale is set to 1e-06 for instance and model parameters
Doing analysis at TEMP = -24.963163 and TNOM = 27.000000

Using KLU as Direct Linear Solver
 Reference value :  3.26449e-08
 Reference value :  1.32472e-07
 Reference value :  2.36335e-07
No. of Data Rows : 68030

  Measurements for Transient Analysis

tphl                =  6.03641e-10 targ=  2.82523e-08 trig=  2.76487e-08
tplh                =  2.06020e-09 targ=  1.07006e-07 trig=  1.04946e-07
i_vdd_avg           =  -1.98028e-06 from=  1.00000e-08 to=  3.30002e-07
power_avg_uw        =  3.57906e+00


Total analysis time (seconds) = 0.852612

Total elapsed time (seconds) = 1.005 

Total DRAM available = 16384.000 MB.
DRAM currently available =  123.969 MB.
Maximum ngspice program size =   25.812 MB.
Current ngspice program size =   25.812 MB.

