
Note: Compatibility modes selected: hs a


Circuit: SKY130 library cell aoi21_1 A1_to_Y__A2=1,B1=0

option SCALE: Scale is set to 1e-06 for instance and model parameters
Doing analysis at TEMP = -3.669888 and TNOM = 27.000000

Using KLU as Direct Linear Solver
 Reference value :  3.98890e-08
 Reference value :  1.44171e-07
 Reference value :  2.43514e-07
No. of Data Rows : 68030

  Measurements for Transient Analysis

tphl                =  -3.59978e-10 targ=  2.79108e-08 trig=  2.82708e-08
tplh                =  1.24246e-09 targ=  1.08055e-07 trig=  1.06812e-07
i_vdd_avg           =  -1.73168e-07 from=  1.00000e-08 to=  3.30001e-07
power_avg_uw        =  2.97923e-01


Total analysis time (seconds) = 0.847464

Total elapsed time (seconds) = 0.999 

Total DRAM available = 16384.000 MB.
DRAM currently available =  147.469 MB.
Maximum ngspice program size =   26.969 MB.
Current ngspice program size =   26.969 MB.

