
Note: Compatibility modes selected: hs a


Circuit: SKY130 library cell oai21_4 A1_to_Y__A2=0,B1=1

option SCALE: Scale is set to 1e-06 for instance and model parameters
Doing analysis at TEMP = 71.489913 and TNOM = 27.000000

Using KLU as Direct Linear Solver
 Reference value :  7.28140e-09
 Reference value :  3.26573e-08
 Reference value :  5.64773e-08
 Reference value :  8.02723e-08
 Reference value :  1.06917e-07
 Reference value :  1.32492e-07
 Reference value :  1.58782e-07
 Reference value :  1.86338e-07
 Reference value :  2.12232e-07
 Reference value :  2.37122e-07
 Reference value :  2.59757e-07
 Reference value :  2.83637e-07
 Reference value :  3.07042e-07
 Reference value :  3.30797e-07
No. of Data Rows : 68032

  Measurements for Transient Analysis

tphl                =  8.78996e-10 targ=  2.78714e-08 trig=  2.69924e-08
tplh                =  1.62654e-09 targ=  1.04604e-07 trig=  1.02977e-07
i_vdd_avg           =  -1.19842e-06 from=  1.00000e-08 to=  3.30002e-07
power_avg_uw        =  2.18529e+00


Total analysis time (seconds) = 3.81554

Total elapsed time (seconds) = 4.038 

Total DRAM available = 16384.000 MB.
DRAM currently available =  217.016 MB.
Maximum ngspice program size =   29.562 MB.
Current ngspice program size =   29.562 MB.

