
Note: Compatibility modes selected: hs a


Circuit: SKY130 library cell aoi21_1 A1_to_Y__A2=1,B1=0

option SCALE: Scale is set to 1e-06 for instance and model parameters
Doing analysis at TEMP = -38.894576 and TNOM = 27.000000

Using KLU as Direct Linear Solver
 Reference value :  3.52838e-08
 Reference value :  1.34535e-07
 Reference value :  2.35264e-07
 Reference value :  3.34905e-07
No. of Data Rows : 68030

  Measurements for Transient Analysis

tphl                =  3.66017e-10 targ=  2.93242e-08 trig=  2.89581e-08
tplh                =  2.31821e-09 targ=  1.11193e-07 trig=  1.08874e-07
i_vdd_avg           =  -1.04785e-07 from=  1.00000e-08 to=  3.30000e-07
power_avg_uw        =  1.74060e-01


Total analysis time (seconds) = 0.86471

Total elapsed time (seconds) = 1.027 

Total DRAM available = 16384.000 MB.
DRAM currently available =  151.562 MB.
Maximum ngspice program size =   24.219 MB.
Current ngspice program size =   24.219 MB.

