
Note: Compatibility modes selected: hs a


Circuit: SKY130 library cell nand2_4 A_to_Y__B=1

option SCALE: Scale is set to 1e-06 for instance and model parameters
Doing analysis at TEMP = 96.511047 and TNOM = 27.000000

Using KLU as Direct Linear Solver
 Reference value :  1.56114e-08
 Reference value :  6.25020e-08
 Reference value :  1.08066e-07
 Reference value :  1.52116e-07
 Reference value :  1.97182e-07
 Reference value :  2.41422e-07
 Reference value :  2.88531e-07
 Reference value :  3.35551e-07
No. of Data Rows : 68032

  Measurements for Transient Analysis

tphl                =  -1.31736e-10 targ=  2.59705e-08 trig=  2.61022e-08
tplh                =  3.81518e-10 targ=  1.00688e-07 trig=  1.00307e-07
i_vdd_avg           =  -1.92187e-06 from=  1.00000e-08 to=  3.30001e-07
power_avg_uw        =  3.71165e+00


Total analysis time (seconds) = 1.89172

Total elapsed time (seconds) = 2.042 

Total DRAM available = 16384.000 MB.
DRAM currently available =  137.125 MB.
Maximum ngspice program size =   25.422 MB.
Current ngspice program size =   25.422 MB.

