
Note: Compatibility modes selected: hs a


Circuit: SKY130 library cell nor2_4 A_to_Y__B=0

option SCALE: Scale is set to 1e-06 for instance and model parameters
Doing analysis at TEMP = 4.429972 and TNOM = 27.000000

Using KLU as Direct Linear Solver
 Reference value :  1.34164e-08
 Reference value :  5.71420e-08
 Reference value :  1.04961e-07
 Reference value :  1.50296e-07
 Reference value :  1.95077e-07
 Reference value :  2.38462e-07
 Reference value :  2.80386e-07
 Reference value :  3.25921e-07
No. of Data Rows : 68032

  Measurements for Transient Analysis

tphl                =  -2.69295e-10 targ=  2.60154e-08 trig=  2.62847e-08
tplh                =  5.88970e-10 targ=  1.01443e-07 trig=  1.00854e-07
i_vdd_avg           =  -4.71065e-07 from=  1.00000e-08 to=  3.30001e-07
power_avg_uw        =  8.33247e-01


Total analysis time (seconds) = 1.92234

Total elapsed time (seconds) = 2.091 

Total DRAM available = 16384.000 MB.
DRAM currently available =  102.875 MB.
Maximum ngspice program size =   28.109 MB.
Current ngspice program size =   28.109 MB.

