
Note: Compatibility modes selected: hs a


Circuit: SKY130 library cell aoi21_1 A1_to_Y__A2=1,B1=0

option SCALE: Scale is set to 1e-06 for instance and model parameters
Doing analysis at TEMP = 59.100733 and TNOM = 27.000000

Using KLU as Direct Linear Solver
 Reference value :  3.69440e-08
 Reference value :  1.43500e-07
 Reference value :  2.35049e-07
No. of Data Rows : 68030

  Measurements for Transient Analysis

tphl                =  1.16903e-09 targ=  2.67448e-08 trig=  2.55757e-08
tplh                =  1.93426e-09 targ=  1.00662e-07 trig=  9.87272e-08
i_vdd_avg           =  -9.12452e-07 from=  1.00000e-08 to=  3.30000e-07
power_avg_uw        =  1.75901e+00


Total analysis time (seconds) = 0.851633

Total elapsed time (seconds) = 1.009 

Total DRAM available = 16384.000 MB.
DRAM currently available =  104.438 MB.
Maximum ngspice program size =   24.766 MB.
Current ngspice program size =   24.766 MB.

