
Note: Compatibility modes selected: hs a


Circuit: SKY130 library cell mux2_4 A0_to_X__A1=0,S=0

option SCALE: Scale is set to 1e-06 for instance and model parameters
Doing analysis at TEMP = -6.443885 and TNOM = 27.000000

Using KLU as Direct Linear Solver
 Reference value :  8.91140e-09
 Reference value :  4.60236e-08
 Reference value :  8.05786e-08
 Reference value :  1.18355e-07
 Reference value :  1.54615e-07
 Reference value :  1.90034e-07
 Reference value :  2.25844e-07
 Reference value :  2.62300e-07
 Reference value :  2.97015e-07
 Reference value :  3.30560e-07
No. of Data Rows : 68032

  Measurements for Transient Analysis

tplh                =  8.44587e-10 targ=  2.68301e-08 trig=  2.59855e-08
tphl                =  1.31240e-09 targ=  1.01269e-07 trig=  9.99566e-08
i_vdd_avg           =  -2.40002e-06 from=  1.00000e-08 to=  3.30005e-07
power_avg_uw        =  4.74251e+00


Total analysis time (seconds) = 2.44861

Total elapsed time (seconds) = 2.620 

Total DRAM available = 16384.000 MB.
DRAM currently available =  185.219 MB.
Maximum ngspice program size =   26.422 MB.
Current ngspice program size =   26.422 MB.

