
Note: Compatibility modes selected: hs a


Circuit: SKY130 library cell xor2_1 A_to_X__B=0

option SCALE: Scale is set to 1e-06 for instance and model parameters
Doing analysis at TEMP = 87.140969 and TNOM = 27.000000

Using KLU as Direct Linear Solver
 Reference value :  2.34064e-08
 Reference value :  8.66240e-08
 Reference value :  1.54255e-07
 Reference value :  2.19744e-07
 Reference value :  2.87440e-07
No. of Data Rows : 68030

  Measurements for Transient Analysis

tplh                =  3.92290e-12 targ=  2.51272e-08 trig=  2.51232e-08
tphl                =  3.17777e-10 targ=  9.76875e-08 trig=  9.73697e-08
i_vdd_avg           =  -2.34714e-07 from=  1.00000e-08 to=  3.30000e-07
power_avg_uw        =  4.29514e-01


Total analysis time (seconds) = 1.29336

Total elapsed time (seconds) = 1.464 

Total DRAM available = 16384.000 MB.
DRAM currently available =  128.297 MB.
Maximum ngspice program size =   26.172 MB.
Current ngspice program size =   26.172 MB.

