
Note: Compatibility modes selected: hs a


Circuit: SKY130 library cell xor2_4 A_to_X__B=0

option SCALE: Scale is set to 1e-06 for instance and model parameters
Doing analysis at TEMP = 62.643133 and TNOM = 27.000000

Using KLU as Direct Linear Solver
 Reference value :  5.21640e-09
 Reference value :  2.37214e-08
 Reference value :  4.11096e-08
 Reference value :  5.92046e-08
 Reference value :  7.58746e-08
 Reference value :  9.22646e-08
 Reference value :  1.08950e-07
 Reference value :  1.25177e-07
 Reference value :  1.42547e-07
 Reference value :  1.59817e-07
 Reference value :  1.76937e-07
 Reference value :  1.94188e-07
 Reference value :  2.11055e-07
 Reference value :  2.28285e-07
 Reference value :  2.45710e-07
 Reference value :  2.62820e-07
 Reference value :  2.79597e-07
 Reference value :  2.96997e-07
 Reference value :  3.14917e-07
 Reference value :  3.32787e-07
No. of Data Rows : 68030

  Measurements for Transient Analysis

tplh                =  -2.06734e-10 targ=  2.95243e-08 trig=  2.97310e-08
tphl                =  1.13345e-09 targ=  1.12327e-07 trig=  1.11193e-07
i_vdd_avg           =  -2.08057e-06 from=  1.00000e-08 to=  3.30002e-07
power_avg_uw        =  3.99406e+00


Total analysis time (seconds) = 4.98037

Total elapsed time (seconds) = 5.186 

Total DRAM available = 16384.000 MB.
DRAM currently available =  123.109 MB.
Maximum ngspice program size =   27.344 MB.
Current ngspice program size =   27.344 MB.

