
Note: Compatibility modes selected: hs a


Circuit: SKY130 library cell nand2_4 A_to_Y__B=1

option SCALE: Scale is set to 1e-06 for instance and model parameters
Doing analysis at TEMP = 12.051967 and TNOM = 27.000000

Using KLU as Direct Linear Solver
 Reference value :  1.56464e-08
 Reference value :  6.48697e-08
 Reference value :  1.08335e-07
 Reference value :  1.53522e-07
 Reference value :  1.98010e-07
 Reference value :  2.42865e-07
 Reference value :  2.87612e-07
 Reference value :  3.35657e-07
No. of Data Rows : 68030

  Measurements for Transient Analysis

tphl                =  1.27985e-10 targ=  2.84291e-08 trig=  2.83011e-08
tplh                =  1.30425e-09 targ=  1.08207e-07 trig=  1.06903e-07
i_vdd_avg           =  -5.93844e-07 from=  1.00000e-08 to=  3.30002e-07
power_avg_uw        =  1.03852e+00


Total analysis time (seconds) = 1.8818

Total elapsed time (seconds) = 2.046 

Total DRAM available = 16384.000 MB.
DRAM currently available =   89.453 MB.
Maximum ngspice program size =   25.656 MB.
Current ngspice program size =   25.656 MB.

