
Note: Compatibility modes selected: hs a


Circuit: SKY130 library cell nor2_4 A_to_Y__B=0

option SCALE: Scale is set to 1e-06 for instance and model parameters
Doing analysis at TEMP = 95.704993 and TNOM = 27.000000

Using KLU as Direct Linear Solver
 Reference value :  1.22914e-08
 Reference value :  5.91088e-08
 Reference value :  1.02359e-07
 Reference value :  1.46680e-07
 Reference value :  1.90684e-07
 Reference value :  2.34689e-07
 Reference value :  2.79940e-07
 Reference value :  3.24490e-07
No. of Data Rows : 68030

  Measurements for Transient Analysis

tphl                =  1.80979e-10 targ=  2.65991e-08 trig=  2.64182e-08
tplh                =  1.11157e-09 targ=  1.02366e-07 trig=  1.01254e-07
i_vdd_avg           =  -2.69021e-06 from=  1.00000e-08 to=  3.30000e-07
power_avg_uw        =  4.93112e+00


Total analysis time (seconds) = 1.93906

Total elapsed time (seconds) = 2.103 

Total DRAM available = 16384.000 MB.
DRAM currently available =  138.969 MB.
Maximum ngspice program size =   26.734 MB.
Current ngspice program size =   26.734 MB.

