
Note: Compatibility modes selected: hs a


Circuit: SKY130 library cell nor2_4 A_to_Y__B=0

option SCALE: Scale is set to 1e-06 for instance and model parameters
Doing analysis at TEMP = -17.442486 and TNOM = 27.000000

Using KLU as Direct Linear Solver
 Reference value :  1.23714e-08
 Reference value :  5.45191e-08
 Reference value :  9.72857e-08
 Reference value :  1.41101e-07
 Reference value :  1.85964e-07
 Reference value :  2.30554e-07
 Reference value :  2.74021e-07
 Reference value :  3.16721e-07
No. of Data Rows : 68030

  Measurements for Transient Analysis

tphl                =  2.82915e-10 targ=  2.48412e-08 trig=  2.45583e-08
tplh                =  9.03549e-10 targ=  9.65785e-08 trig=  9.56749e-08
i_vdd_avg           =  -1.82763e-06 from=  1.00000e-08 to=  3.30001e-07
power_avg_uw        =  2.99793e+00


Total analysis time (seconds) = 1.98868

Total elapsed time (seconds) = 2.157 

Total DRAM available = 16384.000 MB.
DRAM currently available =  135.641 MB.
Maximum ngspice program size =   26.797 MB.
Current ngspice program size =   26.797 MB.

