
Note: Compatibility modes selected: hs a


Circuit: SKY130 library cell xor2_1 A_to_X__B=0

option SCALE: Scale is set to 1e-06 for instance and model parameters
Doing analysis at TEMP = -30.414688 and TNOM = 27.000000

Using KLU as Direct Linear Solver
 Reference value :  2.09814e-08
 Reference value :  8.73538e-08
 Reference value :  1.55590e-07
 Reference value :  2.20409e-07
 Reference value :  2.86975e-07
No. of Data Rows : 68030

  Measurements for Transient Analysis

tplh                =  2.27105e-09 targ=  2.88192e-08 trig=  2.65481e-08
tphl                =  1.28943e-09 targ=  1.02934e-07 trig=  1.01644e-07
i_vdd_avg           =  -2.09952e-06 from=  1.00000e-08 to=  3.30000e-07
power_avg_uw        =  3.55878e+00


Total analysis time (seconds) = 1.30897

Total elapsed time (seconds) = 1.467 

Total DRAM available = 16384.000 MB.
DRAM currently available =  118.406 MB.
Maximum ngspice program size =   27.031 MB.
Current ngspice program size =   27.031 MB.

