
Note: Compatibility modes selected: hs a


Circuit: SKY130 library cell xor2_1 A_to_X__B=0

option SCALE: Scale is set to 1e-06 for instance and model parameters
Doing analysis at TEMP = 24.435081 and TNOM = 27.000000

Using KLU as Direct Linear Solver
 Reference value :  1.92264e-08
 Reference value :  8.93353e-08
 Reference value :  1.55778e-07
 Reference value :  2.19700e-07
 Reference value :  2.87583e-07
No. of Data Rows : 68034

  Measurements for Transient Analysis

tplh                =  3.88075e-09 targ=  3.16821e-08 trig=  2.78014e-08
tphl                =  2.00717e-09 targ=  1.07411e-07 trig=  1.05404e-07
i_vdd_avg           =  -1.78718e-06 from=  1.00000e-08 to=  3.30003e-07
power_avg_uw        =  3.12828e+00


Total analysis time (seconds) = 1.28328

Total elapsed time (seconds) = 1.447 

Total DRAM available = 16384.000 MB.
DRAM currently available =  118.609 MB.
Maximum ngspice program size =   28.344 MB.
Current ngspice program size =   28.344 MB.

