
Note: Compatibility modes selected: hs a


Circuit: SKY130 library cell xor2_4 A_to_X__B=0

option SCALE: Scale is set to 1e-06 for instance and model parameters
Doing analysis at TEMP = 77.148858 and TNOM = 27.000000

Using KLU as Direct Linear Solver
 Reference value :  3.77140e-09
 Reference value :  2.04414e-08
 Reference value :  3.76477e-08
 Reference value :  5.50427e-08
 Reference value :  7.25527e-08
 Reference value :  8.92877e-08
 Reference value :  1.07093e-07
 Reference value :  1.24258e-07
 Reference value :  1.41223e-07
 Reference value :  1.58138e-07
 Reference value :  1.75058e-07
 Reference value :  1.92763e-07
 Reference value :  2.10228e-07
 Reference value :  2.27853e-07
 Reference value :  2.45218e-07
 Reference value :  2.62278e-07
 Reference value :  2.79538e-07
 Reference value :  2.97068e-07
 Reference value :  3.14518e-07
 Reference value :  3.31618e-07
No. of Data Rows : 68032

  Measurements for Transient Analysis

tplh                =  -1.03613e-10 targ=  2.67990e-08 trig=  2.69026e-08
tphl                =  6.70722e-10 targ=  1.03379e-07 trig=  1.02708e-07
i_vdd_avg           =  -1.18395e-06 from=  1.00000e-08 to=  3.30003e-07
power_avg_uw        =  1.98323e+00


Total analysis time (seconds) = 4.95958

Total elapsed time (seconds) = 5.150 

Total DRAM available = 16384.000 MB.
DRAM currently available =  123.109 MB.
Maximum ngspice program size =   28.672 MB.
Current ngspice program size =   28.672 MB.

