
Note: Compatibility modes selected: hs a


Circuit: SKY130 library cell inv_1 A_to_Y

option SCALE: Scale is set to 1e-06 for instance and model parameters
Doing analysis at TEMP = 76.204162 and TNOM = 27.000000

Using KLU as Direct Linear Solver
 Reference value :  1.25450e-07
No. of Data Rows : 68032

  Measurements for Transient Analysis

tphl                =  1.31789e-09 targ=  2.64873e-08 trig=  2.51694e-08
tplh                =  2.16093e-09 targ=  9.96692e-08 trig=  9.75082e-08
i_vdd_avg           =  -2.54506e-06 from=  1.00000e-08 to=  3.30000e-07
power_avg_uw        =  5.01248e+00


Total analysis time (seconds) = 0.329865

Total elapsed time (seconds) = 0.480 

Total DRAM available = 16384.000 MB.
DRAM currently available =  199.781 MB.
Maximum ngspice program size =   24.688 MB.
Current ngspice program size =   24.688 MB.

