
Note: Compatibility modes selected: hs a


Circuit: SKY130 library cell inv_1 A_to_Y

option SCALE: Scale is set to 1e-06 for instance and model parameters
Doing analysis at TEMP = 59.624794 and TNOM = 27.000000

Using KLU as Direct Linear Solver
 Reference value :  1.30292e-07
No. of Data Rows : 68032

  Measurements for Transient Analysis

tphl                =  1.25047e-09 targ=  3.02454e-08 trig=  2.89950e-08
tplh                =  3.28630e-09 targ=  1.12271e-07 trig=  1.08985e-07
i_vdd_avg           =  -2.00408e-06 from=  1.00000e-08 to=  3.30002e-07
power_avg_uw        =  3.39915e+00


Total analysis time (seconds) = 0.330131

Total elapsed time (seconds) = 0.451 

Total DRAM available = 16384.000 MB.
DRAM currently available =  132.047 MB.
Maximum ngspice program size =   24.781 MB.
Current ngspice program size =   24.781 MB.

