
Note: Compatibility modes selected: hs a


Circuit: SKY130 library cell xor2_4 A_to_X__B=0

option SCALE: Scale is set to 1e-06 for instance and model parameters
Doing analysis at TEMP = 32.653139 and TNOM = 27.000000

Using KLU as Direct Linear Solver
 Reference value :  4.39640e-09
 Reference value :  2.05964e-08
 Reference value :  3.79113e-08
 Reference value :  5.53813e-08
 Reference value :  7.20863e-08
 Reference value :  8.93363e-08
 Reference value :  1.06395e-07
 Reference value :  1.22585e-07
 Reference value :  1.39660e-07
 Reference value :  1.57130e-07
 Reference value :  1.74360e-07
 Reference value :  1.91831e-07
 Reference value :  2.10901e-07
 Reference value :  2.29156e-07
 Reference value :  2.46241e-07
 Reference value :  2.63266e-07
 Reference value :  2.81570e-07
 Reference value :  2.99215e-07
 Reference value :  3.16405e-07
 Reference value :  3.34280e-07
No. of Data Rows : 68032

  Measurements for Transient Analysis

tplh                =  5.55307e-10 targ=  2.71047e-08 trig=  2.65494e-08
tphl                =  9.63873e-10 targ=  1.02612e-07 trig=  1.01648e-07
i_vdd_avg           =  -1.17959e-06 from=  1.00000e-08 to=  3.30000e-07
power_avg_uw        =  1.93358e+00


Total analysis time (seconds) = 4.95241

Total elapsed time (seconds) = 5.134 

Total DRAM available = 16384.000 MB.
DRAM currently available =  128.312 MB.
Maximum ngspice program size =   29.562 MB.
Current ngspice program size =   29.562 MB.

