
Note: Compatibility modes selected: hs a


Circuit: SKY130 library cell nand2_1 A_to_Y__B=1

option SCALE: Scale is set to 1e-06 for instance and model parameters
Doing analysis at TEMP = 24.866458 and TNOM = 27.000000

Using KLU as Direct Linear Solver
 Reference value :  6.43431e-08
 Reference value :  2.29213e-07
No. of Data Rows : 68032

  Measurements for Transient Analysis

tphl                =  1.86348e-10 targ=  2.68966e-08 trig=  2.67103e-08
tplh                =  1.11156e-09 targ=  1.03242e-07 trig=  1.02131e-07
i_vdd_avg           =  -7.43355e-07 from=  1.00000e-08 to=  3.30004e-07
power_avg_uw        =  1.44447e+00


Total analysis time (seconds) = 0.526565

Total elapsed time (seconds) = 0.672 

Total DRAM available = 16384.000 MB.
DRAM currently available =  150.172 MB.
Maximum ngspice program size =   27.266 MB.
Current ngspice program size =   27.266 MB.

