
Note: Compatibility modes selected: hs a


Circuit: SKY130 library cell nand3_4 A_to_Y__B=1,C=1

option SCALE: Scale is set to 1e-06 for instance and model parameters
Doing analysis at TEMP = 61.408804 and TNOM = 27.000000

Using KLU as Direct Linear Solver
 Reference value :  7.63640e-09
 Reference value :  3.40022e-08
 Reference value :  5.99822e-08
 Reference value :  8.71172e-08
 Reference value :  1.16727e-07
 Reference value :  1.44077e-07
 Reference value :  1.71872e-07
 Reference value :  1.99782e-07
 Reference value :  2.28667e-07
 Reference value :  2.55307e-07
 Reference value :  2.82767e-07
 Reference value :  3.10667e-07
 Reference value :  3.38852e-07
No. of Data Rows : 68032

  Measurements for Transient Analysis

tphl                =  1.18882e-10 targ=  2.89687e-08 trig=  2.88498e-08
tplh                =  7.77127e-10 targ=  1.09327e-07 trig=  1.08550e-07
i_vdd_avg           =  -2.69578e-07 from=  1.00000e-08 to=  3.30002e-07
power_avg_uw        =  4.88092e-01


Total analysis time (seconds) = 3.11195

Total elapsed time (seconds) = 3.284 

Total DRAM available = 16384.000 MB.
DRAM currently available =  107.594 MB.
Maximum ngspice program size =   26.609 MB.
Current ngspice program size =   26.609 MB.

