
Note: Compatibility modes selected: hs a


Circuit: SKY130 library cell xor2_1 A_to_X__B=0

option SCALE: Scale is set to 1e-06 for instance and model parameters
Doing analysis at TEMP = 106.578250 and TNOM = 27.000000

Using KLU as Direct Linear Solver
 Reference value :  2.29764e-08
 Reference value :  8.74320e-08
 Reference value :  1.53492e-07
 Reference value :  2.21772e-07
 Reference value :  2.87992e-07
No. of Data Rows : 68032

  Measurements for Transient Analysis

tplh                =  1.95829e-09 targ=  2.89755e-08 trig=  2.70173e-08
tphl                =  1.18015e-09 targ=  1.04232e-07 trig=  1.03052e-07
i_vdd_avg           =  -1.18199e-06 from=  1.00000e-08 to=  3.30002e-07
power_avg_uw        =  2.14717e+00


Total analysis time (seconds) = 1.30068

Total elapsed time (seconds) = 1.450 

Total DRAM available = 16384.000 MB.
DRAM currently available =  166.766 MB.
Maximum ngspice program size =   25.547 MB.
Current ngspice program size =   25.547 MB.

