
Note: Compatibility modes selected: hs a


Circuit: SKY130 library cell nand3_4 A_to_Y__B=1,C=1

option SCALE: Scale is set to 1e-06 for instance and model parameters
Doing analysis at TEMP = 80.838907 and TNOM = 27.000000

Using KLU as Direct Linear Solver
 Reference value :  6.51640e-09
 Reference value :  3.30775e-08
 Reference value :  6.10888e-08
 Reference value :  9.03088e-08
 Reference value :  1.19095e-07
 Reference value :  1.48515e-07
 Reference value :  1.77090e-07
 Reference value :  2.04244e-07
 Reference value :  2.33244e-07
 Reference value :  2.62474e-07
 Reference value :  2.89610e-07
 Reference value :  3.18305e-07
No. of Data Rows : 68030

  Measurements for Transient Analysis

tphl                =  1.27689e-09 targ=  2.98650e-08 trig=  2.85881e-08
tplh                =  1.79400e-09 targ=  1.09558e-07 trig=  1.07764e-07
i_vdd_avg           =  -7.82031e-07 from=  1.00000e-08 to=  3.30000e-07
power_avg_uw        =  1.31749e+00


Total analysis time (seconds) = 3.01958

Total elapsed time (seconds) = 3.206 

Total DRAM available = 16384.000 MB.
DRAM currently available =  105.641 MB.
Maximum ngspice program size =   28.812 MB.
Current ngspice program size =   28.812 MB.

