
Note: Compatibility modes selected: hs a


Circuit: SKY130 library cell nand3_4 A_to_Y__B=1,C=1

option SCALE: Scale is set to 1e-06 for instance and model parameters
Doing analysis at TEMP = -9.984134 and TNOM = 27.000000

Using KLU as Direct Linear Solver
 Reference value :  7.05140e-09
 Reference value :  3.30493e-08
 Reference value :  5.86893e-08
 Reference value :  8.65693e-08
 Reference value :  1.14216e-07
 Reference value :  1.41481e-07
 Reference value :  1.69081e-07
 Reference value :  1.96954e-07
 Reference value :  2.25949e-07
 Reference value :  2.52624e-07
 Reference value :  2.79051e-07
 Reference value :  3.07431e-07
 Reference value :  3.35616e-07
No. of Data Rows : 68030

  Measurements for Transient Analysis

tphl                =  1.71663e-10 targ=  2.52500e-08 trig=  2.50784e-08
tplh                =  5.64142e-10 targ=  9.77993e-08 trig=  9.72351e-08
i_vdd_avg           =  -7.92012e-07 from=  1.00000e-08 to=  3.30001e-07
power_avg_uw        =  1.37838e+00


Total analysis time (seconds) = 3.17733

Total elapsed time (seconds) = 3.357 

Total DRAM available = 16384.000 MB.
DRAM currently available =  107.156 MB.
Maximum ngspice program size =   25.688 MB.
Current ngspice program size =   25.688 MB.

