
Note: Compatibility modes selected: hs a


Circuit: SKY130 library cell inv_1 A_to_Y

option SCALE: Scale is set to 1e-06 for instance and model parameters
Doing analysis at TEMP = 69.883593 and TNOM = 27.000000

Using KLU as Direct Linear Solver
 Reference value :  8.72883e-08
No. of Data Rows : 68032

  Measurements for Transient Analysis

tphl                =  3.69902e-10 targ=  2.90728e-08 trig=  2.87029e-08
tplh                =  1.60973e-09 targ=  1.09718e-07 trig=  1.08109e-07
i_vdd_avg           =  -5.51255e-07 from=  1.00000e-08 to=  3.30004e-07
power_avg_uw        =  1.02120e+00


Total analysis time (seconds) = 0.329552

Total elapsed time (seconds) = 0.493 

Total DRAM available = 16384.000 MB.
DRAM currently available =  132.047 MB.
Maximum ngspice program size =   28.094 MB.
Current ngspice program size =   28.094 MB.

