
Note: Compatibility modes selected: hs a


Circuit: SKY130 library cell aoi21_1 A1_to_Y__A2=1,B1=0

option SCALE: Scale is set to 1e-06 for instance and model parameters
Doing analysis at TEMP = 18.849269 and TNOM = 27.000000

Using KLU as Direct Linear Solver
 Reference value :  3.74186e-08
 Reference value :  1.40310e-07
 Reference value :  2.43274e-07
No. of Data Rows : 68032

  Measurements for Transient Analysis

tphl                =  3.86629e-10 targ=  2.54597e-08 trig=  2.50731e-08
tplh                =  1.00170e-09 targ=  9.82209e-08 trig=  9.72192e-08
i_vdd_avg           =  -5.85124e-07 from=  1.00000e-08 to=  3.30005e-07
power_avg_uw        =  1.04811e+00


Total analysis time (seconds) = 0.827776

Total elapsed time (seconds) = 0.985 

Total DRAM available = 16384.000 MB.
DRAM currently available =  133.797 MB.
Maximum ngspice program size =   25.938 MB.
Current ngspice program size =   25.938 MB.

