
Note: Compatibility modes selected: hs a


Circuit: SKY130 library cell mux2_4 A0_to_X__A1=0,S=0

option SCALE: Scale is set to 1e-06 for instance and model parameters
Doing analysis at TEMP = 15.827261 and TNOM = 27.000000

Using KLU as Direct Linear Solver
 Reference value :  1.00664e-08
 Reference value :  4.72144e-08
 Reference value :  8.05144e-08
 Reference value :  1.16806e-07
 Reference value :  1.52636e-07
 Reference value :  1.87843e-07
 Reference value :  2.21839e-07
 Reference value :  2.60294e-07
 Reference value :  2.96201e-07
 Reference value :  3.34226e-07
No. of Data Rows : 68030

  Measurements for Transient Analysis

tplh                =  1.10187e-09 targ=  2.85978e-08 trig=  2.74960e-08
tphl                =  1.90081e-09 targ=  1.06389e-07 trig=  1.04488e-07
i_vdd_avg           =  -1.92411e-06 from=  1.00000e-08 to=  3.30001e-07
power_avg_uw        =  3.55136e+00


Total analysis time (seconds) = 2.41572

Total elapsed time (seconds) = 2.610 

Total DRAM available = 16384.000 MB.
DRAM currently available =  219.922 MB.
Maximum ngspice program size =   28.344 MB.
Current ngspice program size =   28.344 MB.

