
Note: Compatibility modes selected: hs a


Circuit: SKY130 library cell aoi21_4 A1_to_Y__A2=1,B1=0

option SCALE: Scale is set to 1e-06 for instance and model parameters
Doing analysis at TEMP = -37.014591 and TNOM = 27.000000

Using KLU as Direct Linear Solver
 Reference value :  7.94640e-09
 Reference value :  3.43238e-08
 Reference value :  6.45538e-08
 Reference value :  9.36038e-08
 Reference value :  1.20480e-07
 Reference value :  1.47520e-07
 Reference value :  1.75780e-07
 Reference value :  2.02014e-07
 Reference value :  2.28754e-07
 Reference value :  2.57050e-07
 Reference value :  2.86000e-07
 Reference value :  3.12460e-07
No. of Data Rows : 68030

  Measurements for Transient Analysis

tphl                =  2.64953e-10 targ=  2.43156e-08 trig=  2.40506e-08
tplh                =  9.48109e-10 targ=  9.51000e-08 trig=  9.41519e-08
i_vdd_avg           =  -2.24456e-06 from=  1.00000e-08 to=  3.30000e-07
power_avg_uw        =  4.26008e+00


Total analysis time (seconds) = 3.14161

Total elapsed time (seconds) = 3.313 

Total DRAM available = 16384.000 MB.
DRAM currently available =  123.516 MB.
Maximum ngspice program size =   27.578 MB.
Current ngspice program size =   27.578 MB.

