
Note: Compatibility modes selected: hs a


Circuit: SKY130 library cell inv_1 A_to_Y

option SCALE: Scale is set to 1e-06 for instance and model parameters
Doing analysis at TEMP = -20.480964 and TNOM = 27.000000

Using KLU as Direct Linear Solver
 Reference value :  1.07853e-07
No. of Data Rows : 68032

  Measurements for Transient Analysis

tphl                =  2.42376e-09 targ=  3.24088e-08 trig=  2.99851e-08
tplh                =  4.80001e-09 targ=  1.16755e-07 trig=  1.11955e-07
i_vdd_avg           =  -1.00228e-06 from=  1.00000e-08 to=  3.30003e-07
power_avg_uw        =  1.75735e+00


Total analysis time (seconds) = 0.313761

Total elapsed time (seconds) = 0.461 

Total DRAM available = 16384.000 MB.
DRAM currently available =  132.047 MB.
Maximum ngspice program size =   26.344 MB.
Current ngspice program size =   26.344 MB.

