
Note: Compatibility modes selected: hs a


Circuit: SKY130 library cell mux2_1 A0_to_X__A1=0,S=0

option SCALE: Scale is set to 1e-06 for instance and model parameters
Doing analysis at TEMP = 87.577471 and TNOM = 27.000000

Using KLU as Direct Linear Solver
 Reference value :  1.80614e-08
 Reference value :  6.93954e-08
 Reference value :  1.19798e-07
 Reference value :  1.73198e-07
 Reference value :  2.25760e-07
 Reference value :  2.77183e-07
 Reference value :  3.27698e-07
No. of Data Rows : 68034

  Measurements for Transient Analysis

tplh                =  1.35308e-09 targ=  2.68645e-08 trig=  2.55115e-08
tphl                =  1.43366e-09 targ=  9.99680e-08 trig=  9.85344e-08
i_vdd_avg           =  -1.39924e-06 from=  1.00000e-08 to=  3.30003e-07
power_avg_uw        =  2.56028e+00


Total analysis time (seconds) = 1.68281

Total elapsed time (seconds) = 1.852 

Total DRAM available = 16384.000 MB.
DRAM currently available =  117.047 MB.
Maximum ngspice program size =   28.141 MB.
Current ngspice program size =   28.141 MB.

