
Note: Compatibility modes selected: hs a


Circuit: SKY130 library cell nand2_1 A_to_Y__B=1

option SCALE: Scale is set to 1e-06 for instance and model parameters
Doing analysis at TEMP = 76.430392 and TNOM = 27.000000

Using KLU as Direct Linear Solver
 Reference value :  5.51815e-08
 Reference value :  2.01976e-07
No. of Data Rows : 68032

  Measurements for Transient Analysis

tphl                =  2.08369e-09 targ=  3.10957e-08 trig=  2.90120e-08
tplh                =  2.92674e-09 targ=  1.11963e-07 trig=  1.09036e-07
i_vdd_avg           =  -5.70376e-07 from=  1.00000e-08 to=  3.30000e-07
power_avg_uw        =  9.75840e-01


Total analysis time (seconds) = 0.590906

Total elapsed time (seconds) = 0.738 

Total DRAM available = 16384.000 MB.
DRAM currently available =  150.172 MB.
Maximum ngspice program size =   27.359 MB.
Current ngspice program size =   27.359 MB.

