
Note: Compatibility modes selected: hs a


Circuit: SKY130 library cell aoi21_4 A1_to_Y__A2=1,B1=0

option SCALE: Scale is set to 1e-06 for instance and model parameters
Doing analysis at TEMP = 4.803518 and TNOM = 27.000000

Using KLU as Direct Linear Solver
 Reference value :  9.33640e-09
 Reference value :  3.93453e-08
 Reference value :  6.81203e-08
 Reference value :  9.61881e-08
 Reference value :  1.23523e-07
 Reference value :  1.52003e-07
 Reference value :  1.80188e-07
 Reference value :  2.08310e-07
 Reference value :  2.36275e-07
 Reference value :  2.63578e-07
 Reference value :  2.90668e-07
 Reference value :  3.18598e-07
No. of Data Rows : 68034

  Measurements for Transient Analysis

tphl                =  1.91140e-10 targ=  2.45050e-08 trig=  2.43139e-08
tplh                =  4.57305e-10 targ=  9.53990e-08 trig=  9.49417e-08
i_vdd_avg           =  -1.36119e-06 from=  1.00000e-08 to=  3.30003e-07
power_avg_uw        =  2.45492e+00


Total analysis time (seconds) = 3.0694

Total elapsed time (seconds) = 3.232 

Total DRAM available = 16384.000 MB.
DRAM currently available =  116.766 MB.
Maximum ngspice program size =   26.969 MB.
Current ngspice program size =   26.969 MB.

