
Note: Compatibility modes selected: hs a


Circuit: SKY130 library cell nor2_4 A_to_Y__B=0

option SCALE: Scale is set to 1e-06 for instance and model parameters
Doing analysis at TEMP = 72.873924 and TNOM = 27.000000

Using KLU as Direct Linear Solver
 Reference value :  1.28264e-08
 Reference value :  5.71689e-08
 Reference value :  1.02279e-07
 Reference value :  1.44405e-07
 Reference value :  1.89693e-07
 Reference value :  2.34189e-07
 Reference value :  2.79205e-07
 Reference value :  3.22140e-07
No. of Data Rows : 68030

  Measurements for Transient Analysis

tphl                =  7.83736e-10 targ=  2.78944e-08 trig=  2.71107e-08
tplh                =  1.98956e-09 targ=  1.05322e-07 trig=  1.03332e-07
i_vdd_avg           =  -2.23035e-06 from=  1.00000e-08 to=  3.30000e-07
power_avg_uw        =  3.81292e+00


Total analysis time (seconds) = 1.94017

Total elapsed time (seconds) = 2.107 

Total DRAM available = 16384.000 MB.
DRAM currently available =  102.516 MB.
Maximum ngspice program size =   26.906 MB.
Current ngspice program size =   26.906 MB.

