
Note: Compatibility modes selected: hs a


Circuit: SKY130 library cell inv_4 A_to_Y

option SCALE: Scale is set to 1e-06 for instance and model parameters
Doing analysis at TEMP = -7.286474 and TNOM = 27.000000

Using KLU as Direct Linear Solver
 Reference value :  3.59380e-08
 Reference value :  1.30838e-07
 Reference value :  2.21253e-07
 Reference value :  3.19648e-07
No. of Data Rows : 68032

  Measurements for Transient Analysis

tphl                =  7.63689e-11 targ=  2.42716e-08 trig=  2.41952e-08
tplh                =  1.66969e-10 targ=  9.47527e-08 trig=  9.45857e-08
i_vdd_avg           =  -4.30261e-07 from=  1.00000e-08 to=  3.30003e-07
power_avg_uw        =  8.20597e-01


Total analysis time (seconds) = 0.921652

Total elapsed time (seconds) = 1.059 

Total DRAM available = 16384.000 MB.
DRAM currently available =  108.547 MB.
Maximum ngspice program size =   23.766 MB.
Current ngspice program size =   23.766 MB.

