
Note: Compatibility modes selected: hs a


Circuit: SKY130 library cell nor2_1 A_to_Y__B=0

option SCALE: Scale is set to 1e-06 for instance and model parameters
Doing analysis at TEMP = -35.176854 and TNOM = 27.000000

Using KLU as Direct Linear Solver
 Reference value :  5.06244e-08
 Reference value :  1.96814e-07
No. of Data Rows : 68030

  Measurements for Transient Analysis

tphl                =  5.23359e-11 targ=  2.56733e-08 trig=  2.56209e-08
tplh                =  9.16789e-10 targ=  9.97796e-08 trig=  9.88628e-08
i_vdd_avg           =  -3.29683e-07 from=  1.00000e-08 to=  3.30001e-07
power_avg_uw        =  6.20568e-01


Total analysis time (seconds) = 0.585285

Total elapsed time (seconds) = 0.734 

Total DRAM available = 16384.000 MB.
DRAM currently available =  183.094 MB.
Maximum ngspice program size =   27.828 MB.
Current ngspice program size =   27.828 MB.

