
Note: Compatibility modes selected: hs a


Circuit: SKY130 library cell xor2_4 A_to_X__B=0

option SCALE: Scale is set to 1e-06 for instance and model parameters
Doing analysis at TEMP = 15.336635 and TNOM = 27.000000

Using KLU as Direct Linear Solver
 Reference value :  3.87640e-09
 Reference value :  2.01914e-08
 Reference value :  3.65522e-08
 Reference value :  5.42322e-08
 Reference value :  7.08222e-08
 Reference value :  8.83622e-08
 Reference value :  1.05372e-07
 Reference value :  1.22407e-07
 Reference value :  1.40242e-07
 Reference value :  1.56777e-07
 Reference value :  1.74152e-07
 Reference value :  1.91122e-07
 Reference value :  2.09627e-07
 Reference value :  2.27512e-07
 Reference value :  2.44757e-07
 Reference value :  2.61882e-07
 Reference value :  2.78792e-07
 Reference value :  2.95902e-07
 Reference value :  3.13442e-07
 Reference value :  3.30607e-07
No. of Data Rows : 68032

  Measurements for Transient Analysis

tplh                =  1.18846e-09 targ=  2.74233e-08 trig=  2.62349e-08
tphl                =  1.17043e-09 targ=  1.01875e-07 trig=  1.00705e-07
i_vdd_avg           =  -1.80215e-06 from=  1.00000e-08 to=  3.30002e-07
power_avg_uw        =  3.15590e+00


Total analysis time (seconds) = 5.02851

Total elapsed time (seconds) = 5.207 

Total DRAM available = 16384.000 MB.
DRAM currently available =  112.844 MB.
Maximum ngspice program size =   27.547 MB.
Current ngspice program size =   27.547 MB.

