
Note: Compatibility modes selected: hs a


Circuit: SKY130 library cell oai21_4 A1_to_Y__A2=0,B1=1

option SCALE: Scale is set to 1e-06 for instance and model parameters
Doing analysis at TEMP = 32.884532 and TNOM = 27.000000

Using KLU as Direct Linear Solver
 Reference value :  7.40640e-09
 Reference value :  3.40924e-08
 Reference value :  6.05974e-08
 Reference value :  8.76724e-08
 Reference value :  1.17347e-07
 Reference value :  1.44202e-07
 Reference value :  1.71787e-07
 Reference value :  1.99287e-07
 Reference value :  2.26832e-07
 Reference value :  2.54457e-07
 Reference value :  2.82967e-07
 Reference value :  3.09062e-07
 Reference value :  3.39307e-07
No. of Data Rows : 68032

  Measurements for Transient Analysis

tphl                =  7.67876e-10 targ=  2.91503e-08 trig=  2.83824e-08
tplh                =  1.86502e-09 targ=  1.09012e-07 trig=  1.07147e-07
i_vdd_avg           =  -6.73454e-07 from=  1.00000e-08 to=  3.30002e-07
power_avg_uw        =  1.21678e+00


Total analysis time (seconds) = 3.18239

Total elapsed time (seconds) = 3.356 

Total DRAM available = 16384.000 MB.
DRAM currently available =  215.891 MB.
Maximum ngspice program size =   29.141 MB.
Current ngspice program size =   29.141 MB.

