
Note: Compatibility modes selected: hs a


Circuit: SKY130 library cell nand3_4 A_to_Y__B=1,C=1

option SCALE: Scale is set to 1e-06 for instance and model parameters
Doing analysis at TEMP = 52.223753 and TNOM = 27.000000

Using KLU as Direct Linear Solver
 Reference value :  6.28640e-09
 Reference value :  3.43775e-08
 Reference value :  6.28486e-08
 Reference value :  8.90886e-08
 Reference value :  1.16869e-07
 Reference value :  1.45345e-07
 Reference value :  1.74220e-07
 Reference value :  2.03229e-07
 Reference value :  2.30034e-07
 Reference value :  2.57899e-07
 Reference value :  2.86135e-07
 Reference value :  3.13085e-07
No. of Data Rows : 68032

  Measurements for Transient Analysis

tphl                =  1.72861e-09 targ=  3.15142e-08 trig=  2.97856e-08
tplh                =  2.61922e-09 targ=  1.13976e-07 trig=  1.11357e-07
i_vdd_avg           =  -1.61618e-06 from=  1.00000e-08 to=  3.30005e-07
power_avg_uw        =  2.90043e+00


Total analysis time (seconds) = 3.13919

Total elapsed time (seconds) = 3.335 

Total DRAM available = 16384.000 MB.
DRAM currently available =  102.266 MB.
Maximum ngspice program size =   26.266 MB.
Current ngspice program size =   26.266 MB.

