
Note: Compatibility modes selected: hs a


Circuit: SKY130 library cell mux2_4 A0_to_X__A1=0,S=0

option SCALE: Scale is set to 1e-06 for instance and model parameters
Doing analysis at TEMP = 107.282080 and TNOM = 27.000000

Using KLU as Direct Linear Solver
 Reference value :  1.04564e-08
 Reference value :  4.49538e-08
 Reference value :  8.25038e-08
 Reference value :  1.17450e-07
 Reference value :  1.52215e-07
 Reference value :  1.87809e-07
 Reference value :  2.24114e-07
 Reference value :  2.58505e-07
 Reference value :  2.94715e-07
 Reference value :  3.30400e-07
No. of Data Rows : 68030

  Measurements for Transient Analysis

tplh                =  5.18003e-10 targ=  2.47387e-08 trig=  2.42207e-08
tphl                =  5.57371e-10 targ=  9.52193e-08 trig=  9.46620e-08
i_vdd_avg           =  -1.69496e-06 from=  1.00000e-08 to=  3.30000e-07
power_avg_uw        =  3.16971e+00


Total analysis time (seconds) = 2.43214

Total elapsed time (seconds) = 2.618 

Total DRAM available = 16384.000 MB.
DRAM currently available =  214.609 MB.
Maximum ngspice program size =   25.656 MB.
Current ngspice program size =   25.656 MB.

