
Note: Compatibility modes selected: hs a


Circuit: SKY130 library cell oai21_4 A1_to_Y__A2=0,B1=1

option SCALE: Scale is set to 1e-06 for instance and model parameters
Doing analysis at TEMP = 81.929248 and TNOM = 27.000000

Using KLU as Direct Linear Solver
 Reference value :  6.34640e-09
 Reference value :  3.71290e-08
 Reference value :  6.38090e-08
 Reference value :  9.25090e-08
 Reference value :  1.18670e-07
 Reference value :  1.44845e-07
 Reference value :  1.73235e-07
 Reference value :  2.01934e-07
 Reference value :  2.28244e-07
 Reference value :  2.57064e-07
 Reference value :  2.83740e-07
 Reference value :  3.11285e-07
 Reference value :  3.38865e-07
No. of Data Rows : 68030

  Measurements for Transient Analysis

tphl                =  1.05586e-10 targ=  2.64913e-08 trig=  2.63857e-08
tplh                =  9.39084e-10 targ=  1.02096e-07 trig=  1.01157e-07
i_vdd_avg           =  -2.41468e-06 from=  1.00000e-08 to=  3.30000e-07
power_avg_uw        =  4.64440e+00


Total analysis time (seconds) = 3.17299

Total elapsed time (seconds) = 3.353 

Total DRAM available = 16384.000 MB.
DRAM currently available =  154.078 MB.
Maximum ngspice program size =   26.594 MB.
Current ngspice program size =   26.594 MB.

