
Note: Compatibility modes selected: hs a


Circuit: SKY130 library cell mux2_4 A0_to_X__A1=0,S=0

option SCALE: Scale is set to 1e-06 for instance and model parameters
Doing analysis at TEMP = 65.148062 and TNOM = 27.000000

Using KLU as Direct Linear Solver
 Reference value :  1.20914e-08
 Reference value :  4.81284e-08
 Reference value :  8.48834e-08
 Reference value :  1.20604e-07
 Reference value :  1.55899e-07
 Reference value :  1.92653e-07
 Reference value :  2.28933e-07
 Reference value :  2.60958e-07
 Reference value :  2.98374e-07
 Reference value :  3.35049e-07
No. of Data Rows : 68032

  Measurements for Transient Analysis

tplh                =  4.24345e-10 targ=  2.74773e-08 trig=  2.70530e-08
tphl                =  1.15616e-09 targ=  1.04315e-07 trig=  1.03159e-07
i_vdd_avg           =  -1.48918e-06 from=  1.00000e-08 to=  3.30004e-07
power_avg_uw        =  2.77127e+00


Total analysis time (seconds) = 2.41657

Total elapsed time (seconds) = 2.594 

Total DRAM available = 16384.000 MB.
DRAM currently available =  146.094 MB.
Maximum ngspice program size =   26.156 MB.
Current ngspice program size =   26.156 MB.

