
Note: Compatibility modes selected: hs a


Circuit: SKY130 library cell xor2_1 A_to_X__B=0

option SCALE: Scale is set to 1e-06 for instance and model parameters
Doing analysis at TEMP = 95.723471 and TNOM = 27.000000

Using KLU as Direct Linear Solver
 Reference value :  2.51712e-08
 Reference value :  9.65500e-08
 Reference value :  1.61590e-07
 Reference value :  2.25611e-07
 Reference value :  3.01070e-07
No. of Data Rows : 68034

  Measurements for Transient Analysis

tplh                =  1.97972e-09 targ=  2.64891e-08 trig=  2.45094e-08
tphl                =  7.52444e-10 targ=  9.62806e-08 trig=  9.55281e-08
i_vdd_avg           =  -1.34729e-06 from=  1.00000e-08 to=  3.30005e-07
power_avg_uw        =  2.52405e+00


Total analysis time (seconds) = 1.24516

Total elapsed time (seconds) = 1.414 

Total DRAM available = 16384.000 MB.
DRAM currently available =  115.953 MB.
Maximum ngspice program size =   26.922 MB.
Current ngspice program size =   26.922 MB.

