Note: Starting dynamic gmin stepping
Note: Dynamic gmin stepping completed

Note: Compatibility modes selected: hs a


Circuit: SKY130 library cell mux2_1 A0_to_X__A1=0,S=0

option SCALE: Scale is set to 1e-06 for instance and model parameters
Doing analysis at TEMP = 40.065883 and TNOM = 27.000000

Using KLU as Direct Linear Solver
 Reference value :  1.73514e-08
 Reference value :  6.86000e-08
 Reference value :  1.19703e-07
 Reference value :  1.74708e-07
 Reference value :  2.27970e-07
 Reference value :  2.80833e-07
 Reference value :  3.28428e-07
No. of Data Rows : 68034

  Measurements for Transient Analysis

tplh                =  2.76177e-10 targ=  2.43849e-08 trig=  2.41088e-08
tphl                =  2.59679e-10 targ=  9.45860e-08 trig=  9.43263e-08
i_vdd_avg           =  -5.64998e-07 from=  1.00000e-08 to=  3.30003e-07
power_avg_uw        =  1.05582e+00


Total analysis time (seconds) = 1.68348

Total elapsed time (seconds) = 1.841 

Total DRAM available = 16384.000 MB.
DRAM currently available =  168.500 MB.
Maximum ngspice program size =   26.375 MB.
Current ngspice program size =   26.375 MB.

