
Note: Compatibility modes selected: hs a


Circuit: SKY130 library cell nand2_1 A_to_Y__B=1

option SCALE: Scale is set to 1e-06 for instance and model parameters
Doing analysis at TEMP = -28.426895 and TNOM = 27.000000

Using KLU as Direct Linear Solver
 Reference value :  5.73900e-08
 Reference value :  2.25225e-07
No. of Data Rows : 68030

  Measurements for Transient Analysis

tphl                =  3.78909e-09 targ=  3.30228e-08 trig=  2.92337e-08
tplh                =  5.80285e-09 targ=  1.15504e-07 trig=  1.09701e-07
i_vdd_avg           =  -2.10430e-06 from=  1.00000e-08 to=  3.30002e-07
power_avg_uw        =  3.64788e+00


Total analysis time (seconds) = 0.563642

Total elapsed time (seconds) = 0.702 

Total DRAM available = 16384.000 MB.
DRAM currently available =  126.391 MB.
Maximum ngspice program size =   23.906 MB.
Current ngspice program size =   23.906 MB.

