
Note: Compatibility modes selected: hs a


Circuit: SKY130 library cell aoi21_4 A1_to_Y__A2=1,B1=0

option SCALE: Scale is set to 1e-06 for instance and model parameters
Doing analysis at TEMP = -27.165522 and TNOM = 27.000000

Using KLU as Direct Linear Solver
 Reference value :  7.45640e-09
 Reference value :  3.63770e-08
 Reference value :  6.50670e-08
 Reference value :  9.42820e-08
 Reference value :  1.20357e-07
 Reference value :  1.46742e-07
 Reference value :  1.74802e-07
 Reference value :  2.03142e-07
 Reference value :  2.30107e-07
 Reference value :  2.57112e-07
 Reference value :  2.83887e-07
 Reference value :  3.12517e-07
No. of Data Rows : 68032

  Measurements for Transient Analysis

tphl                =  1.19713e-09 targ=  2.87769e-08 trig=  2.75798e-08
tplh                =  3.03088e-09 targ=  1.07770e-07 trig=  1.04739e-07
i_vdd_avg           =  -2.07745e-06 from=  1.00000e-08 to=  3.30002e-07
power_avg_uw        =  3.41815e+00


Total analysis time (seconds) = 3.11165

Total elapsed time (seconds) = 3.288 

Total DRAM available = 16384.000 MB.
DRAM currently available =  111.078 MB.
Maximum ngspice program size =   27.906 MB.
Current ngspice program size =   27.906 MB.

