
Note: Compatibility modes selected: hs a


Circuit: SKY130 library cell inv_1 A_to_Y

option SCALE: Scale is set to 1e-06 for instance and model parameters
Doing analysis at TEMP = 13.167403 and TNOM = 27.000000

Using KLU as Direct Linear Solver
 Reference value :  1.22021e-07
No. of Data Rows : 68030

  Measurements for Transient Analysis

tphl                =  6.82123e-11 targ=  2.76565e-08 trig=  2.75883e-08
tplh                =  1.47254e-09 targ=  1.06237e-07 trig=  1.04765e-07
i_vdd_avg           =  -5.80562e-07 from=  1.00000e-08 to=  3.30001e-07
power_avg_uw        =  1.03857e+00


Total analysis time (seconds) = 0.341089

Total elapsed time (seconds) = 0.466 

Total DRAM available = 16384.000 MB.
DRAM currently available =  336.047 MB.
Maximum ngspice program size =   24.844 MB.
Current ngspice program size =   24.844 MB.

