
Note: Compatibility modes selected: hs a


Circuit: SKY130 library cell aoi21_1 A1_to_Y__A2=1,B1=0

option SCALE: Scale is set to 1e-06 for instance and model parameters
Doing analysis at TEMP = 1.160841 and TNOM = 27.000000

Using KLU as Direct Linear Solver
 Reference value :  3.08608e-08
 Reference value :  1.35549e-07
 Reference value :  2.38576e-07
No. of Data Rows : 68034

  Measurements for Transient Analysis

tphl                =  2.73730e-09 targ=  2.97239e-08 trig=  2.69866e-08
tplh                =  5.78607e-09 targ=  1.08746e-07 trig=  1.02960e-07
i_vdd_avg           =  -2.02438e-06 from=  1.00000e-08 to=  3.30004e-07
power_avg_uw        =  3.56624e+00


Total analysis time (seconds) = 0.883665

Total elapsed time (seconds) = 1.045 

Total DRAM available = 16384.000 MB.
DRAM currently available =  147.469 MB.
Maximum ngspice program size =   25.672 MB.
Current ngspice program size =   25.672 MB.

