
Note: Compatibility modes selected: hs a


Circuit: SKY130 library cell inv_4 A_to_Y

option SCALE: Scale is set to 1e-06 for instance and model parameters
Doing analysis at TEMP = 34.884145 and TNOM = 27.000000

Using KLU as Direct Linear Solver
 Reference value :  4.32034e-08
 Reference value :  1.39809e-07
 Reference value :  2.35433e-07
 Reference value :  3.31544e-07
No. of Data Rows : 68032

  Measurements for Transient Analysis

tphl                =  1.22883e-09 targ=  2.81668e-08 trig=  2.69379e-08
tplh                =  2.15223e-09 targ=  1.04966e-07 trig=  1.02814e-07
i_vdd_avg           =  -1.54997e-06 from=  1.00000e-08 to=  3.30004e-07
power_avg_uw        =  2.58330e+00


Total analysis time (seconds) = 0.895054

Total elapsed time (seconds) = 1.035 

Total DRAM available = 16384.000 MB.
DRAM currently available =  135.562 MB.
Maximum ngspice program size =   25.547 MB.
Current ngspice program size =   25.547 MB.

