
Note: Compatibility modes selected: hs a


Circuit: SKY130 library cell nor2_1 A_to_Y__B=0

option SCALE: Scale is set to 1e-06 for instance and model parameters
Doing analysis at TEMP = 20.048969 and TNOM = 27.000000

Using KLU as Direct Linear Solver
 Reference value :  6.57794e-08
 Reference value :  2.16884e-07
No. of Data Rows : 68030

  Measurements for Transient Analysis

tphl                =  1.53458e-09 targ=  3.12730e-08 trig=  2.97385e-08
tplh                =  4.41796e-09 targ=  1.15633e-07 trig=  1.11215e-07
i_vdd_avg           =  -1.68232e-06 from=  1.00000e-08 to=  3.30001e-07
power_avg_uw        =  3.11511e+00


Total analysis time (seconds) = 0.58194

Total elapsed time (seconds) = 0.716 

Total DRAM available = 16384.000 MB.
DRAM currently available =   87.938 MB.
Maximum ngspice program size =   24.172 MB.
Current ngspice program size =   24.172 MB.

