
Note: Compatibility modes selected: hs a


Circuit: SKY130 library cell oai21_1 A1_to_Y__A2=0,B1=1

option SCALE: Scale is set to 1e-06 for instance and model parameters
Doing analysis at TEMP = 37.855128 and TNOM = 27.000000

Using KLU as Direct Linear Solver
 Reference value :  3.39831e-08
 Reference value :  1.37794e-07
 Reference value :  2.35368e-07
 Reference value :  3.24079e-07
No. of Data Rows : 68032

  Measurements for Transient Analysis

tphl                =  2.46264e-09 targ=  2.97330e-08 trig=  2.72703e-08
tplh                =  4.71754e-09 targ=  1.08528e-07 trig=  1.03811e-07
i_vdd_avg           =  -1.16028e-06 from=  1.00000e-08 to=  3.30004e-07
power_avg_uw        =  1.90649e+00


Total analysis time (seconds) = 0.886877

Total elapsed time (seconds) = 1.046 

Total DRAM available = 16384.000 MB.
DRAM currently available =  142.609 MB.
Maximum ngspice program size =   25.203 MB.
Current ngspice program size =   25.203 MB.

