
Note: Compatibility modes selected: hs a


Circuit: SKY130 library cell xor2_4 A_to_X__B=0

option SCALE: Scale is set to 1e-06 for instance and model parameters
Doing analysis at TEMP = -4.334493 and TNOM = 27.000000

Using KLU as Direct Linear Solver
 Reference value :  3.62140e-09
 Reference value :  2.19614e-08
 Reference value :  3.80023e-08
 Reference value :  5.61073e-08
 Reference value :  7.28373e-08
 Reference value :  8.95373e-08
 Reference value :  1.08272e-07
 Reference value :  1.25647e-07
 Reference value :  1.43322e-07
 Reference value :  1.60907e-07
 Reference value :  1.77322e-07
 Reference value :  1.95347e-07
 Reference value :  2.11942e-07
 Reference value :  2.29277e-07
 Reference value :  2.45977e-07
 Reference value :  2.63232e-07
 Reference value :  2.80142e-07
 Reference value :  2.98217e-07
 Reference value :  3.15967e-07
 Reference value :  3.34687e-07
No. of Data Rows : 68032

  Measurements for Transient Analysis

tplh                =  8.75249e-10 targ=  2.66901e-08 trig=  2.58149e-08
tphl                =  8.43143e-10 targ=  1.00288e-07 trig=  9.94447e-08
i_vdd_avg           =  -2.24153e-06 from=  1.00000e-08 to=  3.30002e-07
power_avg_uw        =  4.38456e+00


Total analysis time (seconds) = 4.96512

Total elapsed time (seconds) = 5.156 

Total DRAM available = 16384.000 MB.
DRAM currently available =   82.312 MB.
Maximum ngspice program size =   26.703 MB.
Current ngspice program size =   26.703 MB.

