
Note: Compatibility modes selected: hs a


Circuit: SKY130 library cell inv_1 A_to_Y

option SCALE: Scale is set to 1e-06 for instance and model parameters
Doing analysis at TEMP = 99.862850 and TNOM = 27.000000

Using KLU as Direct Linear Solver
 Reference value :  1.02783e-07
No. of Data Rows : 68032

  Measurements for Transient Analysis

tphl                =  7.79522e-10 targ=  2.89847e-08 trig=  2.82051e-08
tplh                =  1.80731e-09 targ=  1.08423e-07 trig=  1.06615e-07
i_vdd_avg           =  -5.74993e-07 from=  1.00000e-08 to=  3.30003e-07
power_avg_uw        =  9.84128e-01


Total analysis time (seconds) = 0.300178

Total elapsed time (seconds) = 0.468 

Total DRAM available = 16384.000 MB.
DRAM currently available =   75.031 MB.
Maximum ngspice program size =   23.703 MB.
Current ngspice program size =   23.703 MB.

