
Note: Compatibility modes selected: hs a


Circuit: SKY130 library cell mux2_4 A0_to_X__A1=0,S=0

option SCALE: Scale is set to 1e-06 for instance and model parameters
Doing analysis at TEMP = 117.708540 and TNOM = 27.000000

Using KLU as Direct Linear Solver
 Reference value :  9.33640e-09
 Reference value :  4.49034e-08
 Reference value :  8.07484e-08
 Reference value :  1.15554e-07
 Reference value :  1.47994e-07
 Reference value :  1.84298e-07
 Reference value :  2.19693e-07
 Reference value :  2.56643e-07
 Reference value :  2.94099e-07
 Reference value :  3.30149e-07
No. of Data Rows : 68032

  Measurements for Transient Analysis

tplh                =  6.97543e-10 targ=  2.70555e-08 trig=  2.63579e-08
tphl                =  1.04927e-09 targ=  1.02123e-07 trig=  1.01074e-07
i_vdd_avg           =  -1.16117e-06 from=  1.00000e-08 to=  3.30004e-07
power_avg_uw        =  2.27941e+00


Total analysis time (seconds) = 2.45731

Total elapsed time (seconds) = 2.640 

Total DRAM available = 16384.000 MB.
DRAM currently available =  145.984 MB.
Maximum ngspice program size =   27.234 MB.
Current ngspice program size =   27.234 MB.

