
Note: Compatibility modes selected: hs a


Circuit: SKY130 library cell nand3_4 A_to_Y__B=1,C=1

option SCALE: Scale is set to 1e-06 for instance and model parameters
Doing analysis at TEMP = -0.348810 and TNOM = 27.000000

Using KLU as Direct Linear Solver
 Reference value :  8.18640e-09
 Reference value :  3.45460e-08
 Reference value :  6.24710e-08
 Reference value :  9.06160e-08
 Reference value :  1.18955e-07
 Reference value :  1.47135e-07
 Reference value :  1.72810e-07
 Reference value :  2.00666e-07
 Reference value :  2.28221e-07
 Reference value :  2.56291e-07
 Reference value :  2.84535e-07
 Reference value :  3.09640e-07
 Reference value :  3.39290e-07
No. of Data Rows : 68034

  Measurements for Transient Analysis

tphl                =  7.03406e-10 targ=  2.70652e-08 trig=  2.63618e-08
tplh                =  1.41661e-09 targ=  1.02502e-07 trig=  1.01085e-07
i_vdd_avg           =  -1.04586e-06 from=  1.00000e-08 to=  3.30005e-07
power_avg_uw        =  1.74241e+00


Total analysis time (seconds) = 3.10036

Total elapsed time (seconds) = 3.270 

Total DRAM available = 16384.000 MB.
DRAM currently available =  174.391 MB.
Maximum ngspice program size =   26.500 MB.
Current ngspice program size =   26.500 MB.

