
Note: Compatibility modes selected: hs a


Circuit: SKY130 library cell nand2_1 A_to_Y__B=1

option SCALE: Scale is set to 1e-06 for instance and model parameters
Doing analysis at TEMP = 51.240808 and TNOM = 27.000000

Using KLU as Direct Linear Solver
 Reference value :  6.24499e-08
 Reference value :  2.27415e-07
No. of Data Rows : 68030

  Measurements for Transient Analysis

tphl                =  9.56845e-10 targ=  2.57206e-08 trig=  2.47637e-08
tplh                =  1.29965e-09 targ=  9.75908e-08 trig=  9.62911e-08
i_vdd_avg           =  -1.45225e-06 from=  1.00000e-08 to=  3.30002e-07
power_avg_uw        =  2.56985e+00


Total analysis time (seconds) = 0.516578

Total elapsed time (seconds) = 0.675 

Total DRAM available = 16384.000 MB.
DRAM currently available =   91.594 MB.
Maximum ngspice program size =   27.672 MB.
Current ngspice program size =   27.672 MB.

