
Note: Compatibility modes selected: hs a


Circuit: SKY130 library cell xor2_1 A_to_X__B=0

option SCALE: Scale is set to 1e-06 for instance and model parameters
Doing analysis at TEMP = -12.067050 and TNOM = 27.000000

Using KLU as Direct Linear Solver
 Reference value :  2.10314e-08
 Reference value :  8.57180e-08
 Reference value :  1.56769e-07
 Reference value :  2.26743e-07
 Reference value :  2.96779e-07
No. of Data Rows : 68032

  Measurements for Transient Analysis

tplh                =  9.52692e-10 targ=  2.98455e-08 trig=  2.88928e-08
tphl                =  1.58891e-09 targ=  1.10267e-07 trig=  1.08678e-07
i_vdd_avg           =  -9.10747e-07 from=  1.00000e-08 to=  3.30004e-07
power_avg_uw        =  1.62220e+00


Total analysis time (seconds) = 1.27696

Total elapsed time (seconds) = 1.446 

Total DRAM available = 16384.000 MB.
DRAM currently available =  128.297 MB.
Maximum ngspice program size =   29.422 MB.
Current ngspice program size =   29.422 MB.

