
Note: Compatibility modes selected: hs a


Circuit: SKY130 library cell mux2_1 A0_to_X__A1=0,S=0

option SCALE: Scale is set to 1e-06 for instance and model parameters
Doing analysis at TEMP = 93.304600 and TNOM = 27.000000

Using KLU as Direct Linear Solver
 Reference value :  1.78514e-08
 Reference value :  6.64044e-08
 Reference value :  1.17131e-07
 Reference value :  1.64951e-07
 Reference value :  2.08399e-07
 Reference value :  2.52664e-07
 Reference value :  3.00161e-07
No. of Data Rows : 68030

  Measurements for Transient Analysis

tplh                =  8.59127e-10 targ=  2.91351e-08 trig=  2.82759e-08
tphl                =  1.89647e-09 targ=  1.08724e-07 trig=  1.06828e-07
i_vdd_avg           =  -2.40332e-07 from=  1.00000e-08 to=  3.30001e-07
power_avg_uw        =  4.06074e-01


Total analysis time (seconds) = 1.98934

Total elapsed time (seconds) = 2.155 

Total DRAM available = 16384.000 MB.
DRAM currently available =  129.203 MB.
Maximum ngspice program size =   25.531 MB.
Current ngspice program size =   25.531 MB.

