
Note: Compatibility modes selected: hs a


Circuit: SKY130 library cell inv_1 A_to_Y

option SCALE: Scale is set to 1e-06 for instance and model parameters
Doing analysis at TEMP = -25.196527 and TNOM = 27.000000

Using KLU as Direct Linear Solver
 Reference value :  1.06263e-07
No. of Data Rows : 68032

  Measurements for Transient Analysis

tphl                =  5.36694e-10 targ=  2.50444e-08 trig=  2.45077e-08
tplh                =  1.14908e-09 targ=  9.66723e-08 trig=  9.55232e-08
i_vdd_avg           =  -1.88703e-06 from=  1.00000e-08 to=  3.30003e-07
power_avg_uw        =  3.45604e+00


Total analysis time (seconds) = 0.321384

Total elapsed time (seconds) = 0.469 

Total DRAM available = 16384.000 MB.
DRAM currently available =  203.391 MB.
Maximum ngspice program size =   26.422 MB.
Current ngspice program size =   26.422 MB.

