
Note: Compatibility modes selected: hs a


Circuit: SKY130 library cell oai21_1 A1_to_Y__A2=0,B1=1

option SCALE: Scale is set to 1e-06 for instance and model parameters
Doing analysis at TEMP = -37.443696 and TNOM = 27.000000

Using KLU as Direct Linear Solver
 Reference value :  2.45075e-08
 Reference value :  1.24840e-07
 Reference value :  2.28876e-07
 Reference value :  3.18925e-07
No. of Data Rows : 68034

  Measurements for Transient Analysis

tphl                =  2.96990e-09 targ=  3.10567e-08 trig=  2.80868e-08
tplh                =  7.05555e-09 targ=  1.13316e-07 trig=  1.06260e-07
i_vdd_avg           =  -1.85513e-06 from=  1.00000e-08 to=  3.30005e-07
power_avg_uw        =  3.19470e+00


Total analysis time (seconds) = 0.922022

Total elapsed time (seconds) = 1.096 

Total DRAM available = 16384.000 MB.
DRAM currently available =   48.703 MB.
Maximum ngspice program size =   26.641 MB.
Current ngspice program size =   26.641 MB.

