
Note: Compatibility modes selected: hs a


Circuit: SKY130 library cell nor2_4 A_to_Y__B=0

option SCALE: Scale is set to 1e-06 for instance and model parameters
Doing analysis at TEMP = 112.553210 and TNOM = 27.000000

Using KLU as Direct Linear Solver
 Reference value :  1.36064e-08
 Reference value :  5.69048e-08
 Reference value :  9.75698e-08
 Reference value :  1.40522e-07
 Reference value :  1.90083e-07
 Reference value :  2.33495e-07
 Reference value :  2.79092e-07
 Reference value :  3.22837e-07
No. of Data Rows : 68030

  Measurements for Transient Analysis

tphl                =  6.28713e-10 targ=  3.05949e-08 trig=  2.99662e-08
tplh                =  2.25445e-09 targ=  1.14153e-07 trig=  1.11898e-07
i_vdd_avg           =  -3.36196e-06 from=  1.00000e-08 to=  3.30002e-07
power_avg_uw        =  6.20879e+00


Total analysis time (seconds) = 1.93491

Total elapsed time (seconds) = 2.104 

Total DRAM available = 16384.000 MB.
DRAM currently available =  103.453 MB.
Maximum ngspice program size =   26.953 MB.
Current ngspice program size =   26.953 MB.

