
Note: Compatibility modes selected: hs a


Circuit: SKY130 library cell aoi21_1 A1_to_Y__A2=1,B1=0

option SCALE: Scale is set to 1e-06 for instance and model parameters
Doing analysis at TEMP = 32.932834 and TNOM = 27.000000

Using KLU as Direct Linear Solver
 Reference value :  3.73176e-08
 Reference value :  1.41783e-07
 Reference value :  2.44723e-07
No. of Data Rows : 68032

  Measurements for Transient Analysis

tphl                =  3.01509e-09 targ=  3.18177e-08 trig=  2.88026e-08
tplh                =  6.02805e-09 targ=  1.14436e-07 trig=  1.08408e-07
i_vdd_avg           =  -2.11360e-06 from=  1.00000e-08 to=  3.30003e-07
power_avg_uw        =  3.46241e+00


Total analysis time (seconds) = 0.835918

Total elapsed time (seconds) = 0.998 

Total DRAM available = 16384.000 MB.
DRAM currently available =  142.531 MB.
Maximum ngspice program size =   27.359 MB.
Current ngspice program size =   27.359 MB.

