
Note: Compatibility modes selected: hs a


Circuit: SKY130 library cell nand3_4 A_to_Y__B=1,C=1

option SCALE: Scale is set to 1e-06 for instance and model parameters
Doing analysis at TEMP = 37.118232 and TNOM = 27.000000

Using KLU as Direct Linear Solver
 Reference value :  7.51640e-09
 Reference value :  3.62025e-08
 Reference value :  6.31725e-08
 Reference value :  9.07825e-08
 Reference value :  1.19793e-07
 Reference value :  1.48373e-07
 Reference value :  1.75433e-07
 Reference value :  2.04273e-07
 Reference value :  2.32063e-07
 Reference value :  2.59583e-07
 Reference value :  2.86923e-07
 Reference value :  3.15473e-07
No. of Data Rows : 68032

  Measurements for Transient Analysis

tphl                =  5.95526e-10 targ=  2.68280e-08 trig=  2.62325e-08
tplh                =  1.13474e-09 targ=  1.01832e-07 trig=  1.00698e-07
i_vdd_avg           =  -8.28131e-07 from=  1.00000e-08 to=  3.30003e-07
power_avg_uw        =  1.36567e+00


Total analysis time (seconds) = 3.10993

Total elapsed time (seconds) = 3.300 

Total DRAM available = 16384.000 MB.
DRAM currently available =  176.062 MB.
Maximum ngspice program size =   26.781 MB.
Current ngspice program size =   26.781 MB.

