
Note: Compatibility modes selected: hs a


Circuit: SKY130 library cell nand3_4 A_to_Y__B=1,C=1

option SCALE: Scale is set to 1e-06 for instance and model parameters
Doing analysis at TEMP = -23.776129 and TNOM = 27.000000

Using KLU as Direct Linear Solver
 Reference value :  7.30640e-09
 Reference value :  3.53575e-08
 Reference value :  6.42283e-08
 Reference value :  9.18383e-08
 Reference value :  1.20279e-07
 Reference value :  1.47689e-07
 Reference value :  1.76184e-07
 Reference value :  2.04618e-07
 Reference value :  2.33093e-07
 Reference value :  2.59973e-07
 Reference value :  2.87454e-07
 Reference value :  3.16024e-07
No. of Data Rows : 68032

  Measurements for Transient Analysis

tphl                =  -2.16955e-10 targ=  2.96660e-08 trig=  2.98829e-08
tplh                =  1.86854e-09 targ=  1.13517e-07 trig=  1.11649e-07
i_vdd_avg           =  -2.04980e-06 from=  1.00000e-08 to=  3.30004e-07
power_avg_uw        =  3.76082e+00


Total analysis time (seconds) = 3.07013

Total elapsed time (seconds) = 3.248 

Total DRAM available = 16384.000 MB.
DRAM currently available =  107.594 MB.
Maximum ngspice program size =   26.469 MB.
Current ngspice program size =   26.469 MB.

