
Note: Compatibility modes selected: hs a


Circuit: SKY130 library cell mux2_1 A0_to_X__A1=0,S=0

option SCALE: Scale is set to 1e-06 for instance and model parameters
Doing analysis at TEMP = -26.219126 and TNOM = 27.000000

Using KLU as Direct Linear Solver
 Reference value :  1.72314e-08
 Reference value :  6.56743e-08
 Reference value :  1.18791e-07
 Reference value :  1.72381e-07
 Reference value :  2.23009e-07
 Reference value :  2.80096e-07
 Reference value :  3.32796e-07
No. of Data Rows : 68030

  Measurements for Transient Analysis

tplh                =  3.19694e-10 targ=  2.64956e-08 trig=  2.61759e-08
tphl                =  9.71762e-10 targ=  1.01499e-07 trig=  1.00528e-07
i_vdd_avg           =  -5.50123e-07 from=  1.00000e-08 to=  3.30001e-07
power_avg_uw        =  1.06971e+00


Total analysis time (seconds) = 1.67701

Total elapsed time (seconds) = 1.861 

Total DRAM available = 16384.000 MB.
DRAM currently available =  137.578 MB.
Maximum ngspice program size =   26.781 MB.
Current ngspice program size =   26.781 MB.

