
Note: Compatibility modes selected: hs a


Circuit: SKY130 library cell nor2_1 A_to_Y__B=0

option SCALE: Scale is set to 1e-06 for instance and model parameters
Doing analysis at TEMP = 83.555313 and TNOM = 27.000000

Using KLU as Direct Linear Solver
 Reference value :  5.71998e-08
 Reference value :  1.89155e-07
No. of Data Rows : 68030

  Measurements for Transient Analysis

tphl                =  6.13056e-10 targ=  2.51792e-08 trig=  2.45661e-08
tplh                =  1.64347e-09 targ=  9.73419e-08 trig=  9.56984e-08
i_vdd_avg           =  -7.40697e-07 from=  1.00000e-08 to=  3.30002e-07
power_avg_uw        =  1.28556e+00


Total analysis time (seconds) = 0.592706

Total elapsed time (seconds) = 0.737 

Total DRAM available = 16384.000 MB.
DRAM currently available =  183.094 MB.
Maximum ngspice program size =   26.094 MB.
Current ngspice program size =   26.094 MB.

