
Note: Compatibility modes selected: hs a


Circuit: SKY130 library cell nand2_1 A_to_Y__B=1

option SCALE: Scale is set to 1e-06 for instance and model parameters
Doing analysis at TEMP = -19.225225 and TNOM = 27.000000

Using KLU as Direct Linear Solver
 Reference value :  6.65711e-08
 Reference value :  2.02376e-07
 Reference value :  3.38125e-07
No. of Data Rows : 68034

  Measurements for Transient Analysis

tphl                =  3.81257e-10 targ=  2.45981e-08 trig=  2.42168e-08
tplh                =  6.61037e-10 targ=  9.53114e-08 trig=  9.46504e-08
i_vdd_avg           =  -1.07182e-06 from=  1.00000e-08 to=  3.30005e-07
power_avg_uw        =  1.89905e+00


Total analysis time (seconds) = 0.613876

Total elapsed time (seconds) = 0.760 

Total DRAM available = 16384.000 MB.
DRAM currently available =  101.219 MB.
Maximum ngspice program size =   23.812 MB.
Current ngspice program size =   23.812 MB.

