
Note: Compatibility modes selected: hs a


Circuit: SKY130 library cell aoi21_4 A1_to_Y__A2=1,B1=0

option SCALE: Scale is set to 1e-06 for instance and model parameters
Doing analysis at TEMP = 122.144910 and TNOM = 27.000000

Using KLU as Direct Linear Solver
 Reference value :  7.27140e-09
 Reference value :  3.52144e-08
 Reference value :  6.38594e-08
 Reference value :  9.11894e-08
 Reference value :  1.19021e-07
 Reference value :  1.47756e-07
 Reference value :  1.74601e-07
 Reference value :  2.02209e-07
 Reference value :  2.30169e-07
 Reference value :  2.57839e-07
 Reference value :  2.86721e-07
 Reference value :  3.14806e-07
No. of Data Rows : 68030

  Measurements for Transient Analysis

tphl                =  1.18406e-10 targ=  2.64869e-08 trig=  2.63684e-08
tplh                =  7.16980e-10 targ=  1.01822e-07 trig=  1.01105e-07
i_vdd_avg           =  -1.75014e-06 from=  1.00000e-08 to=  3.30001e-07
power_avg_uw        =  3.12523e+00


Total analysis time (seconds) = 3.09929

Total elapsed time (seconds) = 3.271 

Total DRAM available = 16384.000 MB.
DRAM currently available =  123.516 MB.
Maximum ngspice program size =   27.547 MB.
Current ngspice program size =   27.547 MB.

