
Note: Compatibility modes selected: hs a


Circuit: SKY130 library cell nor2_1 A_to_Y__B=0

option SCALE: Scale is set to 1e-06 for instance and model parameters
Doing analysis at TEMP = -36.783080 and TNOM = 27.000000

Using KLU as Direct Linear Solver
 Reference value :  4.67452e-08
 Reference value :  2.05130e-07
No. of Data Rows : 68034

  Measurements for Transient Analysis

tphl                =  1.80552e-09 targ=  2.85844e-08 trig=  2.67789e-08
tplh                =  4.76571e-09 targ=  1.07102e-07 trig=  1.02337e-07
i_vdd_avg           =  -1.12312e-06 from=  1.00000e-08 to=  3.30003e-07
power_avg_uw        =  1.89362e+00


Total analysis time (seconds) = 0.565098

Total elapsed time (seconds) = 0.722 

Total DRAM available = 16384.000 MB.
DRAM currently available =   87.938 MB.
Maximum ngspice program size =   27.328 MB.
Current ngspice program size =   27.328 MB.

