
Note: Compatibility modes selected: hs a


Circuit: SKY130 library cell nor2_1 A_to_Y__B=0

option SCALE: Scale is set to 1e-06 for instance and model parameters
Doing analysis at TEMP = -18.672713 and TNOM = 27.000000

Using KLU as Direct Linear Solver
 Reference value :  5.98728e-08
 Reference value :  2.07253e-07
No. of Data Rows : 68032

  Measurements for Transient Analysis

tphl                =  2.07560e-09 targ=  3.13132e-08 trig=  2.92376e-08
tplh                =  5.72811e-09 targ=  1.15441e-07 trig=  1.09713e-07
i_vdd_avg           =  -2.28313e-06 from=  1.00000e-08 to=  3.30003e-07
power_avg_uw        =  4.10047e+00


Total analysis time (seconds) = 0.584216

Total elapsed time (seconds) = 0.732 

Total DRAM available = 16384.000 MB.
DRAM currently available =  183.094 MB.
Maximum ngspice program size =   25.312 MB.
Current ngspice program size =   25.312 MB.

