
Note: Compatibility modes selected: hs a


Circuit: SKY130 library cell nand2_4 A_to_Y__B=1

option SCALE: Scale is set to 1e-06 for instance and model parameters
Doing analysis at TEMP = 49.917980 and TNOM = 27.000000

Using KLU as Direct Linear Solver
 Reference value :  1.62614e-08
 Reference value :  6.10132e-08
 Reference value :  1.06883e-07
 Reference value :  1.53799e-07
 Reference value :  2.02238e-07
 Reference value :  2.46533e-07
 Reference value :  2.91794e-07
 Reference value :  3.37554e-07
No. of Data Rows : 68032

  Measurements for Transient Analysis

tphl                =  1.24528e-09 targ=  2.98281e-08 trig=  2.85828e-08
tplh                =  2.15111e-09 targ=  1.09900e-07 trig=  1.07749e-07
i_vdd_avg           =  -1.76509e-06 from=  1.00000e-08 to=  3.30004e-07
power_avg_uw        =  3.29530e+00


Total analysis time (seconds) = 1.88164

Total elapsed time (seconds) = 2.026 

Total DRAM available = 16384.000 MB.
DRAM currently available =  117.984 MB.
Maximum ngspice program size =   26.422 MB.
Current ngspice program size =   26.422 MB.

