
Note: Compatibility modes selected: hs a


Circuit: SKY130 library cell nor2_4 A_to_Y__B=0

option SCALE: Scale is set to 1e-06 for instance and model parameters
Doing analysis at TEMP = 107.055280 and TNOM = 27.000000

Using KLU as Direct Linear Solver
 Reference value :  1.01664e-08
 Reference value :  5.48772e-08
 Reference value :  9.99822e-08
 Reference value :  1.46252e-07
 Reference value :  1.89422e-07
 Reference value :  2.35797e-07
 Reference value :  2.79402e-07
 Reference value :  3.21142e-07
No. of Data Rows : 68032

  Measurements for Transient Analysis

tphl                =  8.14643e-11 targ=  2.57413e-08 trig=  2.56598e-08
tplh                =  6.36848e-10 targ=  9.96163e-08 trig=  9.89795e-08
i_vdd_avg           =  -1.20839e-06 from=  1.00000e-08 to=  3.30002e-07
power_avg_uw        =  2.08510e+00


Total analysis time (seconds) = 1.93665

Total elapsed time (seconds) = 2.124 

Total DRAM available = 16384.000 MB.
DRAM currently available =  103.906 MB.
Maximum ngspice program size =   28.734 MB.
Current ngspice program size =   28.734 MB.

