
Note: Compatibility modes selected: hs a


Circuit: SKY130 library cell mux2_4 A0_to_X__A1=0,S=0

option SCALE: Scale is set to 1e-06 for instance and model parameters
Doing analysis at TEMP = 49.978728 and TNOM = 27.000000

Using KLU as Direct Linear Solver
 Reference value :  1.16114e-08
 Reference value :  4.65657e-08
 Reference value :  8.45857e-08
 Reference value :  1.21144e-07
 Reference value :  1.58284e-07
 Reference value :  1.94631e-07
 Reference value :  2.30001e-07
 Reference value :  2.65316e-07
 Reference value :  3.00639e-07
 Reference value :  3.37939e-07
No. of Data Rows : 68034

  Measurements for Transient Analysis

tplh                =  1.11971e-09 targ=  2.89463e-08 trig=  2.78266e-08
tphl                =  1.87717e-09 targ=  1.07357e-07 trig=  1.05480e-07
i_vdd_avg           =  -1.60304e-06 from=  1.00000e-08 to=  3.30004e-07
power_avg_uw        =  2.89887e+00


Total analysis time (seconds) = 2.39183

Total elapsed time (seconds) = 2.561 

Total DRAM available = 16384.000 MB.
DRAM currently available =  172.859 MB.
Maximum ngspice program size =   27.547 MB.
Current ngspice program size =   27.547 MB.

