
Note: Compatibility modes selected: hs a


Circuit: SKY130 library cell mux2_1 A0_to_X__A1=0,S=0

option SCALE: Scale is set to 1e-06 for instance and model parameters
Doing analysis at TEMP = 119.920600 and TNOM = 27.000000

Using KLU as Direct Linear Solver
 Reference value :  1.44264e-08
 Reference value :  6.75265e-08
 Reference value :  1.18415e-07
 Reference value :  1.69955e-07
 Reference value :  2.23956e-07
 Reference value :  2.74530e-07
 Reference value :  3.27905e-07
No. of Data Rows : 68032

  Measurements for Transient Analysis

tplh                =  -6.85741e-11 targ=  2.73559e-08 trig=  2.74245e-08
tphl                =  9.26441e-10 targ=  1.05200e-07 trig=  1.04273e-07
i_vdd_avg           =  -5.42516e-07 from=  1.00000e-08 to=  3.30000e-07
power_avg_uw        =  1.00011e+00


Total analysis time (seconds) = 1.69318

Total elapsed time (seconds) = 1.877 

Total DRAM available = 16384.000 MB.
DRAM currently available =  137.578 MB.
Maximum ngspice program size =   27.422 MB.
Current ngspice program size =   27.422 MB.

