
Note: Compatibility modes selected: hs a


Circuit: SKY130 library cell oai21_1 A1_to_Y__A2=0,B1=1

option SCALE: Scale is set to 1e-06 for instance and model parameters
Doing analysis at TEMP = 77.174018 and TNOM = 27.000000

Using KLU as Direct Linear Solver
 Reference value :  3.12695e-08
 Reference value :  1.30592e-07
 Reference value :  2.30290e-07
 Reference value :  3.22642e-07
No. of Data Rows : 68030

  Measurements for Transient Analysis

tphl                =  8.32453e-10 targ=  2.51660e-08 trig=  2.43335e-08
tplh                =  2.05708e-09 targ=  9.70576e-08 trig=  9.50005e-08
i_vdd_avg           =  -1.32668e-06 from=  1.00000e-08 to=  3.30002e-07
power_avg_uw        =  2.22445e+00


Total analysis time (seconds) = 0.882967

Total elapsed time (seconds) = 1.047 

Total DRAM available = 16384.000 MB.
DRAM currently available =  123.750 MB.
Maximum ngspice program size =   27.219 MB.
Current ngspice program size =   27.219 MB.

