
Note: Compatibility modes selected: hs a


Circuit: SKY130 library cell mux2_1 A0_to_X__A1=0,S=0

option SCALE: Scale is set to 1e-06 for instance and model parameters
Doing analysis at TEMP = 74.907055 and TNOM = 27.000000

Using KLU as Direct Linear Solver
 Reference value :  1.30514e-08
 Reference value :  6.68411e-08
 Reference value :  1.16965e-07
 Reference value :  1.68070e-07
 Reference value :  2.19616e-07
 Reference value :  2.72605e-07
 Reference value :  3.25580e-07
No. of Data Rows : 68034

  Measurements for Transient Analysis

tplh                =  1.71665e-09 targ=  2.92860e-08 trig=  2.75693e-08
tphl                =  1.96366e-09 targ=  1.06672e-07 trig=  1.04708e-07
i_vdd_avg           =  -2.12222e-06 from=  1.00000e-08 to=  3.30005e-07
power_avg_uw        =  3.51850e+00


Total analysis time (seconds) = 1.67989

Total elapsed time (seconds) = 1.854 

Total DRAM available = 16384.000 MB.
DRAM currently available =  119.609 MB.
Maximum ngspice program size =   26.078 MB.
Current ngspice program size =   26.078 MB.

