
Note: Compatibility modes selected: hs a


Circuit: SKY130 library cell nand2_4 A_to_Y__B=1

option SCALE: Scale is set to 1e-06 for instance and model parameters
Doing analysis at TEMP = 33.230478 and TNOM = 27.000000

Using KLU as Direct Linear Solver
 Reference value :  1.22614e-08
 Reference value :  5.81189e-08
 Reference value :  1.04149e-07
 Reference value :  1.47855e-07
 Reference value :  1.92304e-07
 Reference value :  2.36319e-07
 Reference value :  2.83420e-07
 Reference value :  3.28885e-07
No. of Data Rows : 68030

  Measurements for Transient Analysis

tphl                =  9.95250e-10 targ=  2.86534e-08 trig=  2.76582e-08
tplh                =  2.06343e-09 targ=  1.07038e-07 trig=  1.04975e-07
i_vdd_avg           =  -1.72594e-06 from=  1.00000e-08 to=  3.30000e-07
power_avg_uw        =  2.85278e+00


Total analysis time (seconds) = 1.90594

Total elapsed time (seconds) = 2.080 

Total DRAM available = 16384.000 MB.
DRAM currently available =  117.547 MB.
Maximum ngspice program size =   24.953 MB.
Current ngspice program size =   24.953 MB.

