Note: Starting dynamic gmin stepping
Note: Dynamic gmin stepping completed

Note: Compatibility modes selected: hs a


Circuit: SKY130 library cell mux2_1 A0_to_X__A1=0,S=0

option SCALE: Scale is set to 1e-06 for instance and model parameters
Doing analysis at TEMP = 17.728776 and TNOM = 27.000000

Using KLU as Direct Linear Solver
 Reference value :  1.79214e-08
 Reference value :  7.09259e-08
 Reference value :  1.24534e-07
 Reference value :  1.79119e-07
 Reference value :  2.31636e-07
 Reference value :  2.83844e-07
 Reference value :  3.35024e-07
No. of Data Rows : 68034

  Measurements for Transient Analysis

tplh                =  8.55468e-10 targ=  2.50547e-08 trig=  2.41992e-08
tphl                =  5.65771e-10 targ=  9.51634e-08 trig=  9.45976e-08
i_vdd_avg           =  -2.00166e-06 from=  1.00000e-08 to=  3.30004e-07
power_avg_uw        =  3.78092e+00


Total analysis time (seconds) = 1.65275

Total elapsed time (seconds) = 1.817 

Total DRAM available = 16384.000 MB.
DRAM currently available =  117.047 MB.
Maximum ngspice program size =   28.719 MB.
Current ngspice program size =   28.719 MB.

