
Note: Compatibility modes selected: hs a


Circuit: SKY130 library cell xor2_1 A_to_X__B=0

option SCALE: Scale is set to 1e-06 for instance and model parameters
Doing analysis at TEMP = 40.579510 and TNOM = 27.000000

Using KLU as Direct Linear Solver
 Reference value :  1.97764e-08
 Reference value :  8.58050e-08
 Reference value :  1.57992e-07
 Reference value :  2.22280e-07
 Reference value :  2.87232e-07
No. of Data Rows : 68030

  Measurements for Transient Analysis

tplh                =  6.75797e-10 targ=  2.48795e-08 trig=  2.42037e-08
tphl                =  2.90832e-10 targ=  9.49020e-08 trig=  9.46112e-08
i_vdd_avg           =  -8.48429e-07 from=  1.00000e-08 to=  3.30002e-07
power_avg_uw        =  1.57177e+00


Total analysis time (seconds) = 1.29993

Total elapsed time (seconds) = 1.464 

Total DRAM available = 16384.000 MB.
DRAM currently available =   96.281 MB.
Maximum ngspice program size =   27.328 MB.
Current ngspice program size =   27.328 MB.

