
Note: Compatibility modes selected: hs a


Circuit: SKY130 library cell aoi21_4 A1_to_Y__A2=1,B1=0

option SCALE: Scale is set to 1e-06 for instance and model parameters
Doing analysis at TEMP = 63.428569 and TNOM = 27.000000

Using KLU as Direct Linear Solver
 Reference value :  6.41640e-09
 Reference value :  3.29889e-08
 Reference value :  6.11589e-08
 Reference value :  8.90739e-08
 Reference value :  1.18580e-07
 Reference value :  1.45675e-07
 Reference value :  1.74515e-07
 Reference value :  2.02814e-07
 Reference value :  2.31844e-07
 Reference value :  2.60435e-07
 Reference value :  2.88260e-07
 Reference value :  3.14755e-07
No. of Data Rows : 68030

  Measurements for Transient Analysis

tphl                =  2.92833e-10 targ=  2.48936e-08 trig=  2.46007e-08
tplh                =  4.62789e-10 targ=  9.62650e-08 trig=  9.58022e-08
i_vdd_avg           =  -3.77479e-07 from=  1.00000e-08 to=  3.30000e-07
power_avg_uw        =  6.60451e-01


Total analysis time (seconds) = 3.08335

Total elapsed time (seconds) = 3.262 

Total DRAM available = 16384.000 MB.
DRAM currently available =  103.625 MB.
Maximum ngspice program size =   26.641 MB.
Current ngspice program size =   26.641 MB.

