
Note: Compatibility modes selected: hs a


Circuit: SKY130 library cell aoi21_1 A1_to_Y__A2=1,B1=0

option SCALE: Scale is set to 1e-06 for instance and model parameters
Doing analysis at TEMP = 110.936630 and TNOM = 27.000000

Using KLU as Direct Linear Solver
 Reference value :  3.13181e-08
 Reference value :  1.34944e-07
 Reference value :  2.24553e-07
 Reference value :  3.17819e-07
No. of Data Rows : 68032

  Measurements for Transient Analysis

tphl                =  6.14820e-10 targ=  2.51451e-08 trig=  2.45303e-08
tplh                =  1.12034e-09 targ=  9.67112e-08 trig=  9.55908e-08
i_vdd_avg           =  -9.79519e-07 from=  1.00000e-08 to=  3.30004e-07
power_avg_uw        =  1.85454e+00


Total analysis time (seconds) = 0.913494

Total elapsed time (seconds) = 1.072 

Total DRAM available = 16384.000 MB.
DRAM currently available =  147.109 MB.
Maximum ngspice program size =   25.828 MB.
Current ngspice program size =   25.828 MB.

