
Note: Compatibility modes selected: hs a


Circuit: SKY130 library cell mux2_4 A0_to_X__A1=0,S=0

option SCALE: Scale is set to 1e-06 for instance and model parameters
Doing analysis at TEMP = 31.077526 and TNOM = 27.000000

Using KLU as Direct Linear Solver
 Reference value :  1.20164e-08
 Reference value :  4.85415e-08
 Reference value :  8.58165e-08
 Reference value :  1.20495e-07
 Reference value :  1.57185e-07
 Reference value :  1.93703e-07
 Reference value :  2.29491e-07
 Reference value :  2.66801e-07
 Reference value :  3.02830e-07
 Reference value :  3.37860e-07
No. of Data Rows : 68032

  Measurements for Transient Analysis

tplh                =  6.22226e-10 targ=  3.00917e-08 trig=  2.94695e-08
tphl                =  2.00519e-09 targ=  1.12414e-07 trig=  1.10408e-07
i_vdd_avg           =  -5.95423e-07 from=  1.00000e-08 to=  3.30000e-07
power_avg_uw        =  9.78130e-01


Total analysis time (seconds) = 2.37139

Total elapsed time (seconds) = 2.546 

Total DRAM available = 16384.000 MB.
DRAM currently available =   98.266 MB.
Maximum ngspice program size =   26.453 MB.
Current ngspice program size =   26.453 MB.

