
Note: Compatibility modes selected: hs a


Circuit: SKY130 library cell xor2_4 A_to_X__B=0

option SCALE: Scale is set to 1e-06 for instance and model parameters
Doing analysis at TEMP = 25.339121 and TNOM = 27.000000

Using KLU as Direct Linear Solver
 Reference value :  3.33640e-09
 Reference value :  2.14214e-08
 Reference value :  3.86861e-08
 Reference value :  5.60661e-08
 Reference value :  7.33361e-08
 Reference value :  9.02511e-08
 Reference value :  1.07231e-07
 Reference value :  1.24700e-07
 Reference value :  1.41945e-07
 Reference value :  1.59840e-07
 Reference value :  1.76810e-07
 Reference value :  1.94331e-07
 Reference value :  2.11591e-07
 Reference value :  2.30391e-07
 Reference value :  2.48126e-07
 Reference value :  2.64981e-07
 Reference value :  2.81865e-07
 Reference value :  3.00375e-07
 Reference value :  3.17660e-07
 Reference value :  3.34800e-07
No. of Data Rows : 68034

  Measurements for Transient Analysis

tplh                =  3.95140e-11 targ=  2.84113e-08 trig=  2.83718e-08
tphl                =  1.09166e-09 targ=  1.08207e-07 trig=  1.07115e-07
i_vdd_avg           =  -8.46221e-07 from=  1.00000e-08 to=  3.30005e-07
power_avg_uw        =  1.49292e+00


Total analysis time (seconds) = 4.93415

Total elapsed time (seconds) = 5.129 

Total DRAM available = 16384.000 MB.
DRAM currently available =  130.578 MB.
Maximum ngspice program size =   30.031 MB.
Current ngspice program size =   30.031 MB.

