
Note: Compatibility modes selected: hs a


Circuit: SKY130 library cell nand3_4 A_to_Y__B=1,C=1

option SCALE: Scale is set to 1e-06 for instance and model parameters
Doing analysis at TEMP = -6.342185 and TNOM = 27.000000

Using KLU as Direct Linear Solver
 Reference value :  8.67640e-09
 Reference value :  3.59795e-08
 Reference value :  6.44945e-08
 Reference value :  9.25795e-08
 Reference value :  1.19486e-07
 Reference value :  1.45551e-07
 Reference value :  1.73106e-07
 Reference value :  2.01264e-07
 Reference value :  2.28619e-07
 Reference value :  2.55204e-07
 Reference value :  2.83001e-07
 Reference value :  3.11341e-07
 Reference value :  3.39101e-07
No. of Data Rows : 68030

  Measurements for Transient Analysis

tphl                =  1.17330e-09 targ=  2.87068e-08 trig=  2.75335e-08
tplh                =  2.26817e-09 targ=  1.06869e-07 trig=  1.04600e-07
i_vdd_avg           =  -2.17587e-06 from=  1.00000e-08 to=  3.30001e-07
power_avg_uw        =  3.72659e+00


Total analysis time (seconds) = 3.17088

Total elapsed time (seconds) = 3.343 

Total DRAM available = 16384.000 MB.
DRAM currently available =  107.156 MB.
Maximum ngspice program size =   25.969 MB.
Current ngspice program size =   25.969 MB.

