
Note: Compatibility modes selected: hs a


Circuit: SKY130 library cell xor2_4 A_to_X__B=0

option SCALE: Scale is set to 1e-06 for instance and model parameters
Doing analysis at TEMP = 56.534549 and TNOM = 27.000000

Using KLU as Direct Linear Solver
 Reference value :  3.97140e-09
 Reference value :  1.93914e-08
 Reference value :  3.62226e-08
 Reference value :  5.41826e-08
 Reference value :  7.11276e-08
 Reference value :  8.74626e-08
 Reference value :  1.04108e-07
 Reference value :  1.20358e-07
 Reference value :  1.37558e-07
 Reference value :  1.53988e-07
 Reference value :  1.70528e-07
 Reference value :  1.88168e-07
 Reference value :  2.04848e-07
 Reference value :  2.21388e-07
 Reference value :  2.38888e-07
 Reference value :  2.56448e-07
 Reference value :  2.73818e-07
 Reference value :  2.92793e-07
 Reference value :  3.10208e-07
 Reference value :  3.27098e-07
No. of Data Rows : 68032

  Measurements for Transient Analysis

tplh                =  8.67905e-10 targ=  3.08205e-08 trig=  2.99526e-08
tphl                =  1.64877e-09 targ=  1.13506e-07 trig=  1.11858e-07
i_vdd_avg           =  -1.12365e-06 from=  1.00000e-08 to=  3.30003e-07
power_avg_uw        =  1.93994e+00


Total analysis time (seconds) = 5.19576

Total elapsed time (seconds) = 5.373 

Total DRAM available = 16384.000 MB.
DRAM currently available =  137.703 MB.
Maximum ngspice program size =   27.047 MB.
Current ngspice program size =   10.031 MB.

