
Note: Compatibility modes selected: hs a


Circuit: SKY130 library cell oai21_4 A1_to_Y__A2=0,B1=1

option SCALE: Scale is set to 1e-06 for instance and model parameters
Doing analysis at TEMP = 61.829034 and TNOM = 27.000000

Using KLU as Direct Linear Solver
 Reference value :  7.77140e-09
 Reference value :  3.69389e-08
 Reference value :  6.41139e-08
 Reference value :  9.14889e-08
 Reference value :  1.17320e-07
 Reference value :  1.47045e-07
 Reference value :  1.74780e-07
 Reference value :  2.01534e-07
 Reference value :  2.29034e-07
 Reference value :  2.57534e-07
 Reference value :  2.86000e-07
 Reference value :  3.12275e-07
 Reference value :  3.39055e-07
No. of Data Rows : 68030

  Measurements for Transient Analysis

tphl                =  3.38988e-10 targ=  2.55572e-08 trig=  2.52182e-08
tplh                =  8.87365e-10 targ=  9.85419e-08 trig=  9.76545e-08
i_vdd_avg           =  -1.52484e-06 from=  1.00000e-08 to=  3.30000e-07
power_avg_uw        =  2.55275e+00


Total analysis time (seconds) = 3.16854

Total elapsed time (seconds) = 3.355 

Total DRAM available = 16384.000 MB.
DRAM currently available =  141.922 MB.
Maximum ngspice program size =   26.922 MB.
Current ngspice program size =   26.922 MB.

