
Note: Compatibility modes selected: hs a


Circuit: SKY130 library cell nand2_4 A_to_Y__B=1

option SCALE: Scale is set to 1e-06 for instance and model parameters
Doing analysis at TEMP = 15.908690 and TNOM = 27.000000

Using KLU as Direct Linear Solver
 Reference value :  1.52264e-08
 Reference value :  6.20483e-08
 Reference value :  1.10369e-07
 Reference value :  1.55324e-07
 Reference value :  2.00118e-07
 Reference value :  2.46673e-07
 Reference value :  2.93709e-07
 Reference value :  3.39709e-07
No. of Data Rows : 68032

  Measurements for Transient Analysis

tphl                =  2.02245e-11 targ=  2.80031e-08 trig=  2.79829e-08
tplh                =  1.38581e-09 targ=  1.07335e-07 trig=  1.05949e-07
i_vdd_avg           =  -2.68488e-06 from=  1.00000e-08 to=  3.30004e-07
power_avg_uw        =  5.03951e+00


Total analysis time (seconds) = 1.86172

Total elapsed time (seconds) = 2.024 

Total DRAM available = 16384.000 MB.
DRAM currently available =  126.109 MB.
Maximum ngspice program size =   25.594 MB.
Current ngspice program size =   25.594 MB.

