
Note: Compatibility modes selected: hs a


Circuit: SKY130 library cell inv_4 A_to_Y

option SCALE: Scale is set to 1e-06 for instance and model parameters
Doing analysis at TEMP = -19.128792 and TNOM = 27.000000

Using KLU as Direct Linear Solver
 Reference value :  2.84662e-08
 Reference value :  1.25120e-07
 Reference value :  2.12796e-07
 Reference value :  3.09635e-07
No. of Data Rows : 68034

  Measurements for Transient Analysis

tphl                =  2.62346e-10 targ=  2.52717e-08 trig=  2.50094e-08
tplh                =  6.13307e-10 targ=  9.76414e-08 trig=  9.70281e-08
i_vdd_avg           =  -4.53538e-07 from=  1.00000e-08 to=  3.30005e-07
power_avg_uw        =  8.50117e-01


Total analysis time (seconds) = 0.921525

Total elapsed time (seconds) = 1.082 

Total DRAM available = 16384.000 MB.
DRAM currently available =  123.672 MB.
Maximum ngspice program size =   26.469 MB.
Current ngspice program size =   26.469 MB.

