
Note: Compatibility modes selected: hs a


Circuit: SKY130 library cell aoi21_1 A1_to_Y__A2=1,B1=0

option SCALE: Scale is set to 1e-06 for instance and model parameters
Doing analysis at TEMP = 44.024527 and TNOM = 27.000000

Using KLU as Direct Linear Solver
 Reference value :  3.10163e-08
 Reference value :  1.32855e-07
 Reference value :  2.33171e-07
 Reference value :  3.38895e-07
No. of Data Rows : 68032

  Measurements for Transient Analysis

tphl                =  1.89258e-09 targ=  2.66695e-08 trig=  2.47769e-08
tplh                =  4.84665e-09 targ=  1.01177e-07 trig=  9.63307e-08
i_vdd_avg           =  -1.72085e-06 from=  1.00000e-08 to=  3.30000e-07
power_avg_uw        =  2.79842e+00


Total analysis time (seconds) = 0.835879

Total elapsed time (seconds) = 1.002 

Total DRAM available = 16384.000 MB.
DRAM currently available =  150.328 MB.
Maximum ngspice program size =   26.984 MB.
Current ngspice program size =   26.984 MB.

