
Note: Compatibility modes selected: hs a


Circuit: SKY130 library cell nor2_1 A_to_Y__B=0

option SCALE: Scale is set to 1e-06 for instance and model parameters
Doing analysis at TEMP = 1.640535 and TNOM = 27.000000

Using KLU as Direct Linear Solver
 Reference value :  5.77038e-08
 Reference value :  2.20144e-07
No. of Data Rows : 68030

  Measurements for Transient Analysis

tphl                =  6.95438e-10 targ=  2.75536e-08 trig=  2.68582e-08
tplh                =  2.06768e-09 targ=  1.04642e-07 trig=  1.02574e-07
i_vdd_avg           =  -3.57516e-07 from=  1.00000e-08 to=  3.30000e-07
power_avg_uw        =  5.93813e-01


Total analysis time (seconds) = 0.557865

Total elapsed time (seconds) = 0.706 

Total DRAM available = 16384.000 MB.
DRAM currently available =  148.328 MB.
Maximum ngspice program size =   26.500 MB.
Current ngspice program size =   26.500 MB.

