
Note: Compatibility modes selected: hs a


Circuit: SKY130 library cell inv_4 A_to_Y

option SCALE: Scale is set to 1e-06 for instance and model parameters
Doing analysis at TEMP = 72.207834 and TNOM = 27.000000

Using KLU as Direct Linear Solver
 Reference value :  4.05934e-08
 Reference value :  1.31589e-07
 Reference value :  2.24453e-07
 Reference value :  3.20049e-07
No. of Data Rows : 68032

  Measurements for Transient Analysis

tphl                =  1.65919e-09 targ=  3.00896e-08 trig=  2.84304e-08
tplh                =  2.72412e-09 targ=  1.10015e-07 trig=  1.07291e-07
i_vdd_avg           =  -1.62274e-06 from=  1.00000e-08 to=  3.30004e-07
power_avg_uw        =  2.63612e+00


Total analysis time (seconds) = 0.911036

Total elapsed time (seconds) = 1.053 

Total DRAM available = 16384.000 MB.
DRAM currently available =  123.969 MB.
Maximum ngspice program size =   27.609 MB.
Current ngspice program size =   27.609 MB.

