
Note: Compatibility modes selected: hs a


Circuit: SKY130 library cell nor2_4 A_to_Y__B=0

option SCALE: Scale is set to 1e-06 for instance and model parameters
Doing analysis at TEMP = -4.898945 and TNOM = 27.000000

Using KLU as Direct Linear Solver
 Reference value :  1.44714e-08
 Reference value :  5.91040e-08
 Reference value :  1.04029e-07
 Reference value :  1.48011e-07
 Reference value :  1.89903e-07
 Reference value :  2.31429e-07
 Reference value :  2.77616e-07
 Reference value :  3.20256e-07
No. of Data Rows : 68030

  Measurements for Transient Analysis

tphl                =  4.11671e-10 targ=  2.77699e-08 trig=  2.73583e-08
tplh                =  1.82558e-09 targ=  1.05900e-07 trig=  1.04075e-07
i_vdd_avg           =  -1.41312e-06 from=  1.00000e-08 to=  3.30001e-07
power_avg_uw        =  2.56377e+00


Total analysis time (seconds) = 1.96754

Total elapsed time (seconds) = 2.130 

Total DRAM available = 16384.000 MB.
DRAM currently available =  138.875 MB.
Maximum ngspice program size =   29.188 MB.
Current ngspice program size =   29.188 MB.

