
Note: Compatibility modes selected: hs a


Circuit: SKY130 library cell oai21_4 A1_to_Y__A2=0,B1=1

option SCALE: Scale is set to 1e-06 for instance and model parameters
Doing analysis at TEMP = 121.085160 and TNOM = 27.000000

Using KLU as Direct Linear Solver
 Reference value :  8.39140e-09
 Reference value :  3.64428e-08
 Reference value :  6.21528e-08
 Reference value :  9.16428e-08
 Reference value :  1.19953e-07
 Reference value :  1.48683e-07
 Reference value :  1.77478e-07
 Reference value :  2.06563e-07
 Reference value :  2.34978e-07
 Reference value :  2.62383e-07
 Reference value :  2.90593e-07
 Reference value :  3.20673e-07
No. of Data Rows : 68032

  Measurements for Transient Analysis

tphl                =  2.76701e-10 targ=  2.76669e-08 trig=  2.73902e-08
tplh                =  9.53768e-10 targ=  1.05124e-07 trig=  1.04170e-07
i_vdd_avg           =  -1.10064e-06 from=  1.00000e-08 to=  3.30003e-07
power_avg_uw        =  1.95418e+00


Total analysis time (seconds) = 3.0395

Total elapsed time (seconds) = 3.209 

Total DRAM available = 16384.000 MB.
DRAM currently available =  131.406 MB.
Maximum ngspice program size =   26.156 MB.
Current ngspice program size =   26.156 MB.

