
Note: Compatibility modes selected: hs a


Circuit: SKY130 library cell oai21_1 A1_to_Y__A2=0,B1=1

option SCALE: Scale is set to 1e-06 for instance and model parameters
Doing analysis at TEMP = 114.811700 and TNOM = 27.000000

Using KLU as Direct Linear Solver
 Reference value :  3.30165e-08
 Reference value :  1.23345e-07
 Reference value :  2.21051e-07
 Reference value :  3.18770e-07
No. of Data Rows : 68032

  Measurements for Transient Analysis

tphl                =  6.58173e-10 targ=  2.66602e-08 trig=  2.60020e-08
tplh                =  1.46352e-09 targ=  1.01469e-07 trig=  1.00006e-07
i_vdd_avg           =  -1.11345e-06 from=  1.00000e-08 to=  3.30000e-07
power_avg_uw        =  2.02865e+00


Total analysis time (seconds) = 0.944407

Total elapsed time (seconds) = 1.103 

Total DRAM available = 16384.000 MB.
DRAM currently available =   48.703 MB.
Maximum ngspice program size =   24.906 MB.
Current ngspice program size =   24.906 MB.

