
Note: Compatibility modes selected: hs a


Circuit: SKY130 library cell aoi21_1 A1_to_Y__A2=1,B1=0

option SCALE: Scale is set to 1e-06 for instance and model parameters
Doing analysis at TEMP = 94.361068 and TNOM = 27.000000

Using KLU as Direct Linear Solver
 Reference value :  3.21182e-08
 Reference value :  1.31864e-07
 Reference value :  2.30373e-07
 Reference value :  3.27054e-07
No. of Data Rows : 68032

  Measurements for Transient Analysis

tphl                =  9.67893e-10 targ=  2.59283e-08 trig=  2.49604e-08
tplh                =  1.58755e-09 targ=  9.84686e-08 trig=  9.68811e-08
i_vdd_avg           =  -6.88090e-07 from=  1.00000e-08 to=  3.30004e-07
power_avg_uw        =  1.22401e+00


Total analysis time (seconds) = 0.895831

Total elapsed time (seconds) = 1.055 

Total DRAM available = 16384.000 MB.
DRAM currently available =  127.453 MB.
Maximum ngspice program size =   26.562 MB.
Current ngspice program size =   26.562 MB.

