
Note: Compatibility modes selected: hs a


Circuit: SKY130 library cell nand2_4 A_to_Y__B=1

option SCALE: Scale is set to 1e-06 for instance and model parameters
Doing analysis at TEMP = -6.198238 and TNOM = 27.000000

Using KLU as Direct Linear Solver
 Reference value :  1.84064e-08
 Reference value :  6.13185e-08
 Reference value :  1.10049e-07
 Reference value :  1.55529e-07
 Reference value :  2.04023e-07
 Reference value :  2.50208e-07
 Reference value :  2.97884e-07
No. of Data Rows : 68032

  Measurements for Transient Analysis

tphl                =  1.68851e-10 targ=  2.74243e-08 trig=  2.72555e-08
tplh                =  1.40088e-09 targ=  1.05167e-07 trig=  1.03766e-07
i_vdd_avg           =  -2.89829e-06 from=  1.00000e-08 to=  3.30004e-07
power_avg_uw        =  5.53686e+00


Total analysis time (seconds) = 1.8518

Total elapsed time (seconds) = 2.001 

Total DRAM available = 16384.000 MB.
DRAM currently available =  126.109 MB.
Maximum ngspice program size =   25.562 MB.
Current ngspice program size =   25.562 MB.

