
Note: Compatibility modes selected: hs a


Circuit: SKY130 library cell nand3_1 A_to_Y__B=1,C=1

option SCALE: Scale is set to 1e-06 for instance and model parameters
Doing analysis at TEMP = 119.764750 and TNOM = 27.000000

Using KLU as Direct Linear Solver
 Reference value :  3.39144e-08
 Reference value :  1.35106e-07
 Reference value :  2.37284e-07
No. of Data Rows : 68030

  Measurements for Transient Analysis

tphl                =  1.80501e-09 targ=  2.90760e-08 trig=  2.72710e-08
tplh                =  1.85691e-09 targ=  1.05670e-07 trig=  1.03813e-07
i_vdd_avg           =  -7.63189e-07 from=  1.00000e-08 to=  3.30001e-07
power_avg_uw        =  1.44670e+00


Total analysis time (seconds) = 0.866318

Total elapsed time (seconds) = 1.027 

Total DRAM available = 16384.000 MB.
DRAM currently available =  133.422 MB.
Maximum ngspice program size =   26.391 MB.
Current ngspice program size =   26.391 MB.

