
Note: Compatibility modes selected: hs a


Circuit: SKY130 library cell nand2_4 A_to_Y__B=1

option SCALE: Scale is set to 1e-06 for instance and model parameters
Doing analysis at TEMP = 60.215206 and TNOM = 27.000000

Using KLU as Direct Linear Solver
 Reference value :  1.37214e-08
 Reference value :  6.31923e-08
 Reference value :  1.08187e-07
 Reference value :  1.56462e-07
 Reference value :  2.04637e-07
 Reference value :  2.52597e-07
 Reference value :  3.00257e-07
No. of Data Rows : 68032

  Measurements for Transient Analysis

tphl                =  4.73133e-10 targ=  2.70955e-08 trig=  2.66224e-08
tplh                =  1.27468e-09 targ=  1.03142e-07 trig=  1.01867e-07
i_vdd_avg           =  -2.61520e-06 from=  1.00000e-08 to=  3.30002e-07
power_avg_uw        =  4.51626e+00


Total analysis time (seconds) = 1.82925

Total elapsed time (seconds) = 1.992 

Total DRAM available = 16384.000 MB.
DRAM currently available =   83.656 MB.
Maximum ngspice program size =   27.109 MB.
Current ngspice program size =   27.109 MB.

