
Note: Compatibility modes selected: hs a


Circuit: SKY130 library cell xor2_4 A_to_X__B=0

option SCALE: Scale is set to 1e-06 for instance and model parameters
Doing analysis at TEMP = 124.675050 and TNOM = 27.000000

Using KLU as Direct Linear Solver
 Reference value :  3.70640e-09
 Reference value :  2.23014e-08
 Reference value :  4.03166e-08
 Reference value :  5.80816e-08
 Reference value :  7.50316e-08
 Reference value :  9.17366e-08
 Reference value :  1.10271e-07
 Reference value :  1.27821e-07
 Reference value :  1.44701e-07
 Reference value :  1.61616e-07
 Reference value :  1.79101e-07
 Reference value :  1.95997e-07
 Reference value :  2.13052e-07
 Reference value :  2.29772e-07
 Reference value :  2.45322e-07
 Reference value :  2.63666e-07
 Reference value :  2.81746e-07
 Reference value :  2.99871e-07
 Reference value :  3.16651e-07
 Reference value :  3.34396e-07
No. of Data Rows : 68032

  Measurements for Transient Analysis

tplh                =  2.32750e-10 targ=  2.62023e-08 trig=  2.59695e-08
tphl                =  5.82611e-10 targ=  1.00491e-07 trig=  9.99086e-08
i_vdd_avg           =  -3.39635e-06 from=  1.00000e-08 to=  3.30001e-07
power_avg_uw        =  6.23122e+00


Total analysis time (seconds) = 4.9254

Total elapsed time (seconds) = 5.119 

Total DRAM available = 16384.000 MB.
DRAM currently available =  105.984 MB.
Maximum ngspice program size =   28.734 MB.
Current ngspice program size =   28.734 MB.

