
Note: Compatibility modes selected: hs a


Circuit: SKY130 library cell nand2_4 A_to_Y__B=1

option SCALE: Scale is set to 1e-06 for instance and model parameters
Doing analysis at TEMP = 23.459704 and TNOM = 27.000000

Using KLU as Direct Linear Solver
 Reference value :  1.53064e-08
 Reference value :  6.33740e-08
 Reference value :  1.08384e-07
 Reference value :  1.56950e-07
 Reference value :  2.03679e-07
 Reference value :  2.51474e-07
 Reference value :  2.97585e-07
No. of Data Rows : 68030

  Measurements for Transient Analysis

tphl                =  -4.19344e-10 targ=  2.87039e-08 trig=  2.91232e-08
tplh                =  1.26017e-09 targ=  1.10630e-07 trig=  1.09370e-07
i_vdd_avg           =  -3.03451e-06 from=  1.00000e-08 to=  3.30000e-07
power_avg_uw        =  5.83125e+00


Total analysis time (seconds) = 1.83232

Total elapsed time (seconds) = 1.988 

Total DRAM available = 16384.000 MB.
DRAM currently available =  117.984 MB.
Maximum ngspice program size =   26.953 MB.
Current ngspice program size =   26.953 MB.

