
Note: Compatibility modes selected: hs a


Circuit: SKY130 library cell nand2_1 A_to_Y__B=1

option SCALE: Scale is set to 1e-06 for instance and model parameters
Doing analysis at TEMP = 91.002540 and TNOM = 27.000000

Using KLU as Direct Linear Solver
 Reference value :  6.38588e-08
 Reference value :  2.22494e-07
No. of Data Rows : 68030

  Measurements for Transient Analysis

tphl                =  1.94185e-09 targ=  3.05250e-08 trig=  2.85831e-08
tplh                =  2.93743e-09 targ=  1.10687e-07 trig=  1.07749e-07
i_vdd_avg           =  -1.85968e-06 from=  1.00000e-08 to=  3.30000e-07
power_avg_uw        =  3.47098e+00


Total analysis time (seconds) = 0.551212

Total elapsed time (seconds) = 0.692 

Total DRAM available = 16384.000 MB.
DRAM currently available =   91.594 MB.
Maximum ngspice program size =   27.125 MB.
Current ngspice program size =   27.125 MB.

