
Note: Compatibility modes selected: hs a


Circuit: SKY130 library cell nand2_1 A_to_Y__B=1

option SCALE: Scale is set to 1e-06 for instance and model parameters
Doing analysis at TEMP = -1.346988 and TNOM = 27.000000

Using KLU as Direct Linear Solver
 Reference value :  6.37676e-08
 Reference value :  2.35068e-07
No. of Data Rows : 68032

  Measurements for Transient Analysis

tphl                =  1.84085e-09 targ=  2.92084e-08 trig=  2.73676e-08
tplh                =  3.11134e-09 targ=  1.07214e-07 trig=  1.04103e-07
i_vdd_avg           =  -1.81449e-06 from=  1.00000e-08 to=  3.30003e-07
power_avg_uw        =  3.26483e+00


Total analysis time (seconds) = 0.522864

Total elapsed time (seconds) = 0.671 

Total DRAM available = 16384.000 MB.
DRAM currently available =  101.219 MB.
Maximum ngspice program size =   23.656 MB.
Current ngspice program size =   23.656 MB.

