
Note: Compatibility modes selected: hs a


Circuit: SKY130 library cell aoi21_1 A1_to_Y__A2=1,B1=0

option SCALE: Scale is set to 1e-06 for instance and model parameters
Doing analysis at TEMP = 66.096111 and TNOM = 27.000000

Using KLU as Direct Linear Solver
 Reference value :  3.44994e-08
 Reference value :  1.36311e-07
 Reference value :  2.36159e-07
 Reference value :  3.31261e-07
No. of Data Rows : 68030

  Measurements for Transient Analysis

tphl                =  1.64148e-09 targ=  2.96999e-08 trig=  2.80584e-08
tplh                =  3.19271e-09 targ=  1.09368e-07 trig=  1.06175e-07
i_vdd_avg           =  -1.54669e-06 from=  1.00000e-08 to=  3.30001e-07
power_avg_uw        =  2.88773e+00


Total analysis time (seconds) = 0.881856

Total elapsed time (seconds) = 1.034 

Total DRAM available = 16384.000 MB.
DRAM currently available =  133.797 MB.
Maximum ngspice program size =   25.203 MB.
Current ngspice program size =   25.203 MB.

