
Note: Compatibility modes selected: hs a


Circuit: SKY130 library cell aoi21_1 A1_to_Y__A2=1,B1=0

option SCALE: Scale is set to 1e-06 for instance and model parameters
Doing analysis at TEMP = -31.314073 and TNOM = 27.000000

Using KLU as Direct Linear Solver
 Reference value :  3.46672e-08
 Reference value :  1.33817e-07
 Reference value :  2.31447e-07
 Reference value :  3.33902e-07
No. of Data Rows : 68032

  Measurements for Transient Analysis

tphl                =  2.91399e-09 targ=  3.08338e-08 trig=  2.79198e-08
tplh                =  6.27064e-09 targ=  1.12030e-07 trig=  1.05760e-07
i_vdd_avg           =  -1.48656e-06 from=  1.00000e-08 to=  3.30002e-07
power_avg_uw        =  2.51883e+00


Total analysis time (seconds) = 0.865247

Total elapsed time (seconds) = 1.030 

Total DRAM available = 16384.000 MB.
DRAM currently available =  122.281 MB.
Maximum ngspice program size =   25.172 MB.
Current ngspice program size =   25.172 MB.

