
Note: Compatibility modes selected: hs a


Circuit: SKY130 library cell nor2_1 A_to_Y__B=0

option SCALE: Scale is set to 1e-06 for instance and model parameters
Doing analysis at TEMP = -0.647145 and TNOM = 27.000000

Using KLU as Direct Linear Solver
 Reference value :  5.29563e-08
 Reference value :  2.00326e-07
No. of Data Rows : 68032

  Measurements for Transient Analysis

tphl                =  -4.52351e-10 targ=  2.82971e-08 trig=  2.87494e-08
tplh                =  9.76876e-10 targ=  1.09225e-07 trig=  1.08248e-07
i_vdd_avg           =  -1.47015e-07 from=  1.00000e-08 to=  3.30000e-07
power_avg_uw        =  2.82824e-01


Total analysis time (seconds) = 0.585526

Total elapsed time (seconds) = 0.736 

Total DRAM available = 16384.000 MB.
DRAM currently available =  131.141 MB.
Maximum ngspice program size =   26.625 MB.
Current ngspice program size =   26.625 MB.

