
Note: Compatibility modes selected: hs a


Circuit: SKY130 library cell nand2_1 A_to_Y__B=1

option SCALE: Scale is set to 1e-06 for instance and model parameters
Doing analysis at TEMP = 21.825357 and TNOM = 27.000000

Using KLU as Direct Linear Solver
 Reference value :  6.29505e-08
 Reference value :  2.11681e-07
No. of Data Rows : 68034

  Measurements for Transient Analysis

tphl                =  2.29539e-09 targ=  3.03619e-08 trig=  2.80665e-08
tplh                =  3.39097e-09 targ=  1.09591e-07 trig=  1.06200e-07
i_vdd_avg           =  -7.88704e-07 from=  1.00000e-08 to=  3.30004e-07
power_avg_uw        =  1.33381e+00


Total analysis time (seconds) = 0.560402

Total elapsed time (seconds) = 0.705 

Total DRAM available = 16384.000 MB.
DRAM currently available =  126.391 MB.
Maximum ngspice program size =   25.797 MB.
Current ngspice program size =   25.797 MB.

