
Note: Compatibility modes selected: hs a


Circuit: SKY130 library cell nand2_4 A_to_Y__B=1

option SCALE: Scale is set to 1e-06 for instance and model parameters
Doing analysis at TEMP = 4.946299 and TNOM = 27.000000

Using KLU as Direct Linear Solver
 Reference value :  1.48464e-08
 Reference value :  6.05321e-08
 Reference value :  1.06362e-07
 Reference value :  1.52832e-07
 Reference value :  1.99177e-07
 Reference value :  2.46627e-07
 Reference value :  2.93937e-07
 Reference value :  3.37082e-07
No. of Data Rows : 68032

  Measurements for Transient Analysis

tphl                =  9.55992e-11 targ=  2.99804e-08 trig=  2.98848e-08
tplh                =  1.73475e-09 targ=  1.13389e-07 trig=  1.11654e-07
i_vdd_avg           =  -4.78064e-07 from=  1.00000e-08 to=  3.30002e-07
power_avg_uw        =  8.05215e-01


Total analysis time (seconds) = 1.87112

Total elapsed time (seconds) = 2.030 

Total DRAM available = 16384.000 MB.
DRAM currently available =  137.125 MB.
Maximum ngspice program size =   28.672 MB.
Current ngspice program size =   28.672 MB.

