
Note: Compatibility modes selected: hs a


Circuit: SKY130 library cell nor2_4 A_to_Y__B=0

option SCALE: Scale is set to 1e-06 for instance and model parameters
Doing analysis at TEMP = 68.398750 and TNOM = 27.000000

Using KLU as Direct Linear Solver
 Reference value :  1.72764e-08
 Reference value :  6.43822e-08
 Reference value :  1.11162e-07
 Reference value :  1.57522e-07
 Reference value :  2.03182e-07
 Reference value :  2.46627e-07
 Reference value :  2.92902e-07
 Reference value :  3.37567e-07
No. of Data Rows : 68032

  Measurements for Transient Analysis

tphl                =  7.53767e-11 targ=  2.89677e-08 trig=  2.88924e-08
tplh                =  1.97740e-09 targ=  1.10654e-07 trig=  1.08677e-07
i_vdd_avg           =  -3.61257e-06 from=  1.00000e-08 to=  3.30002e-07
power_avg_uw        =  6.52559e+00


Total analysis time (seconds) = 1.86387

Total elapsed time (seconds) = 2.023 

Total DRAM available = 16384.000 MB.
DRAM currently available =  125.875 MB.
Maximum ngspice program size =   24.562 MB.
Current ngspice program size =   24.562 MB.

