
Note: Compatibility modes selected: hs a


Circuit: SKY130 library cell nor2_4 A_to_Y__B=0

option SCALE: Scale is set to 1e-06 for instance and model parameters
Doing analysis at TEMP = 61.739497 and TNOM = 27.000000

Using KLU as Direct Linear Solver
 Reference value :  1.21664e-08
 Reference value :  5.65186e-08
 Reference value :  9.81198e-08
 Reference value :  1.42725e-07
 Reference value :  1.86499e-07
 Reference value :  2.31834e-07
 Reference value :  2.75530e-07
 Reference value :  3.19135e-07
No. of Data Rows : 68032

  Measurements for Transient Analysis

tphl                =  7.19662e-11 targ=  2.45300e-08 trig=  2.44581e-08
tplh                =  2.89233e-10 targ=  9.56635e-08 trig=  9.53742e-08
i_vdd_avg           =  -8.90754e-07 from=  1.00000e-08 to=  3.30005e-07
power_avg_uw        =  1.74047e+00


Total analysis time (seconds) = 1.95726

Total elapsed time (seconds) = 2.144 

Total DRAM available = 16384.000 MB.
DRAM currently available =  167.438 MB.
Maximum ngspice program size =   26.312 MB.
Current ngspice program size =   26.312 MB.

