
Note: Compatibility modes selected: hs a


Circuit: SKY130 library cell inv_4 A_to_Y

option SCALE: Scale is set to 1e-06 for instance and model parameters
Doing analysis at TEMP = 27.130525 and TNOM = 27.000000

Using KLU as Direct Linear Solver
 Reference value :  3.67312e-08
 Reference value :  1.36945e-07
 Reference value :  2.36111e-07
 Reference value :  3.33270e-07
No. of Data Rows : 68034

  Measurements for Transient Analysis

tphl                =  -1.35558e-11 targ=  2.93958e-08 trig=  2.94094e-08
tplh                =  1.39499e-09 targ=  1.11623e-07 trig=  1.10228e-07
i_vdd_avg           =  -3.61013e-07 from=  1.00000e-08 to=  3.30005e-07
power_avg_uw        =  5.89788e-01


Total analysis time (seconds) = 0.878961

Total elapsed time (seconds) = 1.016 

Total DRAM available = 16384.000 MB.
DRAM currently available =  170.594 MB.
Maximum ngspice program size =   25.422 MB.
Current ngspice program size =   25.422 MB.

