
Note: Compatibility modes selected: hs a


Circuit: SKY130 library cell nand3_1 A_to_Y__B=1,C=1

option SCALE: Scale is set to 1e-06 for instance and model parameters
Doing analysis at TEMP = 78.011294 and TNOM = 27.000000

Using KLU as Direct Linear Solver
 Reference value :  2.97525e-08
 Reference value :  1.24756e-07
 Reference value :  2.18862e-07
 Reference value :  3.17096e-07
No. of Data Rows : 68032

  Measurements for Transient Analysis

tphl                =  1.48214e-09 targ=  3.12119e-08 trig=  2.97297e-08
tplh                =  2.77047e-09 targ=  1.13960e-07 trig=  1.11189e-07
i_vdd_avg           =  -1.45841e-06 from=  1.00000e-08 to=  3.30001e-07
power_avg_uw        =  2.47573e+00


Total analysis time (seconds) = 0.906587

Total elapsed time (seconds) = 1.077 

Total DRAM available = 16384.000 MB.
DRAM currently available =  176.766 MB.
Maximum ngspice program size =   27.875 MB.
Current ngspice program size =   27.875 MB.

