
Note: Compatibility modes selected: hs a


Circuit: SKY130 library cell nand3_4 A_to_Y__B=1,C=1

option SCALE: Scale is set to 1e-06 for instance and model parameters
Doing analysis at TEMP = 32.682916 and TNOM = 27.000000

Using KLU as Direct Linear Solver
 Reference value :  6.08140e-09
 Reference value :  3.52563e-08
 Reference value :  6.39963e-08
 Reference value :  9.14463e-08
 Reference value :  1.20710e-07
 Reference value :  1.48755e-07
 Reference value :  1.77135e-07
 Reference value :  2.06116e-07
 Reference value :  2.33646e-07
 Reference value :  2.60765e-07
 Reference value :  2.88125e-07
 Reference value :  3.16655e-07
No. of Data Rows : 68032

  Measurements for Transient Analysis

tphl                =  4.17028e-10 targ=  2.59789e-08 trig=  2.55619e-08
tplh                =  7.11359e-10 targ=  9.93971e-08 trig=  9.86857e-08
i_vdd_avg           =  -1.91484e-07 from=  1.00000e-08 to=  3.30000e-07
power_avg_uw        =  3.17364e-01


Total analysis time (seconds) = 3.05177

Total elapsed time (seconds) = 3.230 

Total DRAM available = 16384.000 MB.
DRAM currently available =  174.391 MB.
Maximum ngspice program size =   26.734 MB.
Current ngspice program size =   26.734 MB.

