
Note: Compatibility modes selected: hs a


Circuit: SKY130 library cell xor2_4 A_to_X__B=0

option SCALE: Scale is set to 1e-06 for instance and model parameters
Doing analysis at TEMP = -14.193464 and TNOM = 27.000000

Using KLU as Direct Linear Solver
 Reference value :  5.51140e-09
 Reference value :  2.33464e-08
 Reference value :  3.94508e-08
 Reference value :  5.71858e-08
 Reference value :  7.39408e-08
 Reference value :  9.06708e-08
 Reference value :  1.08269e-07
 Reference value :  1.26089e-07
 Reference value :  1.42884e-07
 Reference value :  1.60274e-07
 Reference value :  1.78699e-07
 Reference value :  1.95631e-07
 Reference value :  2.12151e-07
 Reference value :  2.29516e-07
 Reference value :  2.46501e-07
 Reference value :  2.64029e-07
 Reference value :  2.81564e-07
 Reference value :  2.99524e-07
 Reference value :  3.16809e-07
 Reference value :  3.34639e-07
No. of Data Rows : 68034

  Measurements for Transient Analysis

tplh                =  1.06994e-10 targ=  2.53037e-08 trig=  2.51967e-08
tphl                =  4.48431e-10 targ=  9.80384e-08 trig=  9.75900e-08
i_vdd_avg           =  -1.13000e-06 from=  1.00000e-08 to=  3.30004e-07
power_avg_uw        =  2.06532e+00


Total analysis time (seconds) = 4.96034

Total elapsed time (seconds) = 5.171 

Total DRAM available = 16384.000 MB.
DRAM currently available =  130.578 MB.
Maximum ngspice program size =   26.906 MB.
Current ngspice program size =   26.906 MB.

