
Note: Compatibility modes selected: hs a


Circuit: SKY130 library cell mux2_1 A0_to_X__A1=0,S=0

option SCALE: Scale is set to 1e-06 for instance and model parameters
Doing analysis at TEMP = 44.228486 and TNOM = 27.000000

Using KLU as Direct Linear Solver
 Reference value :  1.61464e-08
 Reference value :  6.58069e-08
 Reference value :  1.16117e-07
 Reference value :  1.69286e-07
 Reference value :  2.21827e-07
 Reference value :  2.73682e-07
 Reference value :  3.27156e-07
No. of Data Rows : 68032

  Measurements for Transient Analysis

tplh                =  2.55221e-11 targ=  2.99102e-08 trig=  2.98847e-08
tphl                =  1.67070e-09 targ=  1.13325e-07 trig=  1.11654e-07
i_vdd_avg           =  -1.03004e-06 from=  1.00000e-08 to=  3.30001e-07
power_avg_uw        =  1.79766e+00


Total analysis time (seconds) = 1.67141

Total elapsed time (seconds) = 1.859 

Total DRAM available = 16384.000 MB.
DRAM currently available =  121.453 MB.
Maximum ngspice program size =   26.578 MB.
Current ngspice program size =   26.578 MB.

