
Note: Compatibility modes selected: hs a


Circuit: SKY130 library cell nand2_1 A_to_Y__B=1

option SCALE: Scale is set to 1e-06 for instance and model parameters
Doing analysis at TEMP = -24.908497 and TNOM = 27.000000

Using KLU as Direct Linear Solver
 Reference value :  5.59554e-08
 Reference value :  2.13360e-07
No. of Data Rows : 68034

  Measurements for Transient Analysis

tphl                =  2.77030e-09 targ=  3.15343e-08 trig=  2.87640e-08
tplh                =  4.45114e-09 targ=  1.12743e-07 trig=  1.08292e-07
i_vdd_avg           =  -1.21291e-06 from=  1.00000e-08 to=  3.30003e-07
power_avg_uw        =  2.11445e+00


Total analysis time (seconds) = 0.557857

Total elapsed time (seconds) = 0.722 

Total DRAM available = 16384.000 MB.
DRAM currently available =  111.547 MB.
Maximum ngspice program size =   27.188 MB.
Current ngspice program size =   27.188 MB.

