
Note: Compatibility modes selected: hs a


Circuit: SKY130 library cell nor2_1 A_to_Y__B=0

option SCALE: Scale is set to 1e-06 for instance and model parameters
Doing analysis at TEMP = 35.096986 and TNOM = 27.000000

Using KLU as Direct Linear Solver
 Reference value :  5.49489e-08
 Reference value :  1.93119e-07
No. of Data Rows : 68030

  Measurements for Transient Analysis

tphl                =  1.12469e-09 targ=  2.73004e-08 trig=  2.61757e-08
tplh                =  2.76122e-09 targ=  1.03288e-07 trig=  1.00527e-07
i_vdd_avg           =  -1.49018e-06 from=  1.00000e-08 to=  3.30000e-07
power_avg_uw        =  2.69716e+00


Total analysis time (seconds) = 0.595015

Total elapsed time (seconds) = 0.745 

Total DRAM available = 16384.000 MB.
DRAM currently available =  117.547 MB.
Maximum ngspice program size =   25.719 MB.
Current ngspice program size =   25.719 MB.

