
Note: Compatibility modes selected: hs a


Circuit: SKY130 library cell xor2_4 A_to_X__B=0

option SCALE: Scale is set to 1e-06 for instance and model parameters
Doing analysis at TEMP = 41.382183 and TNOM = 27.000000

Using KLU as Direct Linear Solver
 Reference value :  3.21640e-09
 Reference value :  2.15364e-08
 Reference value :  3.79389e-08
 Reference value :  5.50689e-08
 Reference value :  7.23989e-08
 Reference value :  8.98239e-08
 Reference value :  1.07205e-07
 Reference value :  1.24415e-07
 Reference value :  1.40795e-07
 Reference value :  1.58410e-07
 Reference value :  1.75685e-07
 Reference value :  1.92714e-07
 Reference value :  2.09924e-07
 Reference value :  2.27889e-07
 Reference value :  2.44664e-07
 Reference value :  2.61959e-07
 Reference value :  2.80155e-07
 Reference value :  2.96755e-07
 Reference value :  3.14405e-07
 Reference value :  3.31945e-07
No. of Data Rows : 68030

  Measurements for Transient Analysis

tplh                =  -7.34257e-11 targ=  2.62973e-08 trig=  2.63707e-08
tphl                =  6.59238e-10 targ=  1.01771e-07 trig=  1.01112e-07
i_vdd_avg           =  -2.37847e-06 from=  1.00000e-08 to=  3.30000e-07
power_avg_uw        =  4.58716e+00


Total analysis time (seconds) = 5.10643

Total elapsed time (seconds) = 5.296 

Total DRAM available = 16384.000 MB.
DRAM currently available =  137.703 MB.
Maximum ngspice program size =   28.062 MB.
Current ngspice program size =   12.938 MB.

