
Note: Compatibility modes selected: hs a


Circuit: SKY130 library cell oai21_1 A1_to_Y__A2=0,B1=1

option SCALE: Scale is set to 1e-06 for instance and model parameters
Doing analysis at TEMP = 41.580010 and TNOM = 27.000000

Using KLU as Direct Linear Solver
 Reference value :  2.76375e-08
 Reference value :  1.28505e-07
 Reference value :  2.31771e-07
 Reference value :  3.34195e-07
No. of Data Rows : 68032

  Measurements for Transient Analysis

tphl                =  1.70350e-09 targ=  3.10680e-08 trig=  2.93645e-08
tplh                =  3.33732e-09 targ=  1.13431e-07 trig=  1.10093e-07
i_vdd_avg           =  -5.80611e-07 from=  1.00000e-08 to=  3.30000e-07
power_avg_uw        =  1.05399e+00


Total analysis time (seconds) = 0.843894

Total elapsed time (seconds) = 1.015 

Total DRAM available = 16384.000 MB.
DRAM currently available =   97.656 MB.
Maximum ngspice program size =   25.984 MB.
Current ngspice program size =   25.984 MB.

