
Note: Compatibility modes selected: hs a


Circuit: SKY130 library cell mux2_4 A0_to_X__A1=0,S=0

option SCALE: Scale is set to 1e-06 for instance and model parameters
Doing analysis at TEMP = -3.199192 and TNOM = 27.000000

Using KLU as Direct Linear Solver
 Reference value :  9.28640e-09
 Reference value :  3.96134e-08
 Reference value :  7.62184e-08
 Reference value :  1.11054e-07
 Reference value :  1.49779e-07
 Reference value :  1.85883e-07
 Reference value :  2.22458e-07
 Reference value :  2.58519e-07
 Reference value :  2.95299e-07
 Reference value :  3.32974e-07
No. of Data Rows : 68032

  Measurements for Transient Analysis

tplh                =  6.92971e-10 targ=  2.53434e-08 trig=  2.46504e-08
tphl                =  8.82078e-10 targ=  9.68334e-08 trig=  9.59513e-08
i_vdd_avg           =  -1.13784e-06 from=  1.00000e-08 to=  3.30004e-07
power_avg_uw        =  1.96830e+00


Total analysis time (seconds) = 2.42296

Total elapsed time (seconds) = 2.607 

Total DRAM available = 16384.000 MB.
DRAM currently available =  195.641 MB.
Maximum ngspice program size =   26.047 MB.
Current ngspice program size =   26.047 MB.

