
Note: Compatibility modes selected: hs a


Circuit: SKY130 library cell inv_4 A_to_Y

option SCALE: Scale is set to 1e-06 for instance and model parameters
Doing analysis at TEMP = 83.694389 and TNOM = 27.000000

Using KLU as Direct Linear Solver
 Reference value :  3.95706e-08
 Reference value :  1.32309e-07
 Reference value :  2.32101e-07
 Reference value :  3.31729e-07
No. of Data Rows : 68034

  Measurements for Transient Analysis

tphl                =  1.64809e-10 targ=  2.58989e-08 trig=  2.57341e-08
tplh                =  7.59369e-10 targ=  9.99616e-08 trig=  9.92022e-08
i_vdd_avg           =  -2.74317e-06 from=  1.00000e-08 to=  3.30004e-07
power_avg_uw        =  5.27224e+00


Total analysis time (seconds) = 0.875068

Total elapsed time (seconds) = 1.021 

Total DRAM available = 16384.000 MB.
DRAM currently available =  124.984 MB.
Maximum ngspice program size =   26.609 MB.
Current ngspice program size =   26.609 MB.

