
Note: Compatibility modes selected: hs a


Circuit: SKY130 library cell nor2_4 A_to_Y__B=0

option SCALE: Scale is set to 1e-06 for instance and model parameters
Doing analysis at TEMP = 78.915467 and TNOM = 27.000000

Using KLU as Direct Linear Solver
 Reference value :  1.19414e-08
 Reference value :  5.68092e-08
 Reference value :  1.02619e-07
 Reference value :  1.48116e-07
 Reference value :  1.91818e-07
 Reference value :  2.33609e-07
 Reference value :  2.79201e-07
 Reference value :  3.25191e-07
No. of Data Rows : 68030

  Measurements for Transient Analysis

tphl                =  1.26641e-10 targ=  2.82625e-08 trig=  2.81358e-08
tplh                =  1.56802e-09 targ=  1.07976e-07 trig=  1.06407e-07
i_vdd_avg           =  -1.70657e-06 from=  1.00000e-08 to=  3.30001e-07
power_avg_uw        =  2.76800e+00


Total analysis time (seconds) = 1.93465

Total elapsed time (seconds) = 2.099 

Total DRAM available = 16384.000 MB.
DRAM currently available =  103.453 MB.
Maximum ngspice program size =   26.391 MB.
Current ngspice program size =   26.391 MB.

