
Note: Compatibility modes selected: hs a


Circuit: SKY130 library cell nand2_1 A_to_Y__B=1

option SCALE: Scale is set to 1e-06 for instance and model parameters
Doing analysis at TEMP = -14.487109 and TNOM = 27.000000

Using KLU as Direct Linear Solver
 Reference value :  5.37323e-08
 Reference value :  1.94242e-07
 Reference value :  3.39202e-07
No. of Data Rows : 68032

  Measurements for Transient Analysis

tphl                =  3.23157e-09 targ=  3.14690e-08 trig=  2.82374e-08
tplh                =  4.76761e-09 targ=  1.11480e-07 trig=  1.06712e-07
i_vdd_avg           =  -1.83902e-06 from=  1.00000e-08 to=  3.30002e-07
power_avg_uw        =  3.17910e+00


Total analysis time (seconds) = 0.593959

Total elapsed time (seconds) = 0.761 

Total DRAM available = 16384.000 MB.
DRAM currently available =  101.219 MB.
Maximum ngspice program size =   26.938 MB.
Current ngspice program size =   26.938 MB.

