
Note: Compatibility modes selected: hs a


Circuit: SKY130 library cell oai21_1 A1_to_Y__A2=0,B1=1

option SCALE: Scale is set to 1e-06 for instance and model parameters
Doing analysis at TEMP = -17.722714 and TNOM = 27.000000

Using KLU as Direct Linear Solver
 Reference value :  2.98275e-08
 Reference value :  1.27590e-07
 Reference value :  2.31514e-07
 Reference value :  3.29820e-07
No. of Data Rows : 68030

  Measurements for Transient Analysis

tphl                =  1.61018e-09 targ=  3.01984e-08 trig=  2.85882e-08
tplh                =  3.96883e-09 targ=  1.11733e-07 trig=  1.07765e-07
i_vdd_avg           =  -8.67426e-07 from=  1.00000e-08 to=  3.30000e-07
power_avg_uw        =  1.46400e+00


Total analysis time (seconds) = 0.871876

Total elapsed time (seconds) = 1.036 

Total DRAM available = 16384.000 MB.
DRAM currently available =  120.938 MB.
Maximum ngspice program size =   27.453 MB.
Current ngspice program size =   27.453 MB.

