
Note: Compatibility modes selected: hs a


Circuit: SKY130 library cell aoi21_1 A1_to_Y__A2=1,B1=0

option SCALE: Scale is set to 1e-06 for instance and model parameters
Doing analysis at TEMP = -12.503101 and TNOM = 27.000000

Using KLU as Direct Linear Solver
 Reference value :  3.01475e-08
 Reference value :  1.33358e-07
 Reference value :  2.31480e-07
 Reference value :  3.38858e-07
No. of Data Rows : 68034

  Measurements for Transient Analysis

tphl                =  8.20356e-10 targ=  2.80267e-08 trig=  2.72063e-08
tplh                =  2.64909e-09 targ=  1.06268e-07 trig=  1.03619e-07
i_vdd_avg           =  -1.72977e-06 from=  1.00000e-08 to=  3.30003e-07
power_avg_uw        =  3.34314e+00


Total analysis time (seconds) = 0.854844

Total elapsed time (seconds) = 1.012 

Total DRAM available = 16384.000 MB.
DRAM currently available =  122.281 MB.
Maximum ngspice program size =   25.172 MB.
Current ngspice program size =   25.172 MB.

