
Note: Compatibility modes selected: hs a


Circuit: SKY130 library cell xor2_4 A_to_X__B=0

option SCALE: Scale is set to 1e-06 for instance and model parameters
Doing analysis at TEMP = -26.965304 and TNOM = 27.000000

Using KLU as Direct Linear Solver
 Reference value :  3.91140e-09
 Reference value :  2.09814e-08
 Reference value :  3.72176e-08
 Reference value :  5.46876e-08
 Reference value :  7.12526e-08
 Reference value :  8.80476e-08
 Reference value :  1.05128e-07
 Reference value :  1.22103e-07
 Reference value :  1.39833e-07
 Reference value :  1.56818e-07
 Reference value :  1.73083e-07
 Reference value :  1.90143e-07
 Reference value :  2.07893e-07
 Reference value :  2.25193e-07
 Reference value :  2.42448e-07
 Reference value :  2.60638e-07
 Reference value :  2.78418e-07
 Reference value :  2.95278e-07
 Reference value :  3.12493e-07
 Reference value :  3.29718e-07
No. of Data Rows : 68032

  Measurements for Transient Analysis

tplh                =  1.40658e-09 targ=  3.01741e-08 trig=  2.87675e-08
tphl                =  1.93121e-09 targ=  1.10234e-07 trig=  1.08303e-07
i_vdd_avg           =  -2.59074e-06 from=  1.00000e-08 to=  3.30003e-07
power_avg_uw        =  4.76785e+00


Total analysis time (seconds) = 5.02895

Total elapsed time (seconds) = 5.217 

Total DRAM available = 16384.000 MB.
DRAM currently available =  134.031 MB.
Maximum ngspice program size =   27.922 MB.
Current ngspice program size =   27.922 MB.

