
Note: Compatibility modes selected: hs a


Circuit: SKY130 library cell aoi21_1 A1_to_Y__A2=1,B1=0

option SCALE: Scale is set to 1e-06 for instance and model parameters
Doing analysis at TEMP = -23.929031 and TNOM = 27.000000

Using KLU as Direct Linear Solver
 Reference value :  2.96730e-08
 Reference value :  1.23588e-07
 Reference value :  2.24733e-07
 Reference value :  3.24233e-07
No. of Data Rows : 68032

  Measurements for Transient Analysis

tphl                =  2.15404e-10 targ=  2.43756e-08 trig=  2.41602e-08
tplh                =  6.96955e-10 targ=  9.51777e-08 trig=  9.44807e-08
i_vdd_avg           =  -4.55036e-07 from=  1.00000e-08 to=  3.30003e-07
power_avg_uw        =  7.48116e-01


Total analysis time (seconds) = 0.880496

Total elapsed time (seconds) = 1.046 

Total DRAM available = 16384.000 MB.
DRAM currently available =  113.375 MB.
Maximum ngspice program size =   27.172 MB.
Current ngspice program size =   27.172 MB.

