
Note: Compatibility modes selected: hs a


Circuit: SKY130 library cell mux2_4 A0_to_X__A1=0,S=0

option SCALE: Scale is set to 1e-06 for instance and model parameters
Doing analysis at TEMP = 9.068649 and TNOM = 27.000000

Using KLU as Direct Linear Solver
 Reference value :  1.04914e-08
 Reference value :  4.77044e-08
 Reference value :  8.53744e-08
 Reference value :  1.21376e-07
 Reference value :  1.58626e-07
 Reference value :  1.93524e-07
 Reference value :  2.26614e-07
 Reference value :  2.62339e-07
 Reference value :  2.94251e-07
 Reference value :  3.27596e-07
No. of Data Rows : 68030

  Measurements for Transient Analysis

tplh                =  -9.02491e-12 targ=  2.61819e-08 trig=  2.61910e-08
tphl                =  7.62447e-10 targ=  1.01335e-07 trig=  1.00573e-07
i_vdd_avg           =  -3.31766e-07 from=  1.00000e-08 to=  3.30001e-07
power_avg_uw        =  5.89550e-01


Total analysis time (seconds) = 2.49462

Total elapsed time (seconds) = 2.662 

Total DRAM available = 16384.000 MB.
DRAM currently available =  145.984 MB.
Maximum ngspice program size =   26.047 MB.
Current ngspice program size =   26.047 MB.

