
Note: Compatibility modes selected: hs a


Circuit: SKY130 library cell nand3_4 A_to_Y__B=1,C=1

option SCALE: Scale is set to 1e-06 for instance and model parameters
Doing analysis at TEMP = 18.966556 and TNOM = 27.000000

Using KLU as Direct Linear Solver
 Reference value :  9.19140e-09
 Reference value :  3.66626e-08
 Reference value :  6.47776e-08
 Reference value :  9.18626e-08
 Reference value :  1.20378e-07
 Reference value :  1.48618e-07
 Reference value :  1.76578e-07
 Reference value :  2.04893e-07
 Reference value :  2.32923e-07
 Reference value :  2.59263e-07
 Reference value :  2.87643e-07
 Reference value :  3.16908e-07
No. of Data Rows : 68032

  Measurements for Transient Analysis

tphl                =  3.17401e-10 targ=  2.93575e-08 trig=  2.90401e-08
tplh                =  1.55978e-09 targ=  1.10680e-07 trig=  1.09120e-07
i_vdd_avg           =  -1.39767e-06 from=  1.00000e-08 to=  3.30003e-07
power_avg_uw        =  2.62562e+00


Total analysis time (seconds) = 3.13611

Total elapsed time (seconds) = 3.307 

Total DRAM available = 16384.000 MB.
DRAM currently available =  132.047 MB.
Maximum ngspice program size =   29.281 MB.
Current ngspice program size =   29.281 MB.

