
Note: Compatibility modes selected: hs a


Circuit: SKY130 library cell xor2_1 A_to_X__B=0

option SCALE: Scale is set to 1e-06 for instance and model parameters
Doing analysis at TEMP = 118.743000 and TNOM = 27.000000

Using KLU as Direct Linear Solver
 Reference value :  2.68607e-08
 Reference value :  8.99757e-08
 Reference value :  1.52199e-07
 Reference value :  2.18406e-07
 Reference value :  2.88684e-07
No. of Data Rows : 68034

  Measurements for Transient Analysis

tplh                =  2.12181e-09 targ=  2.75109e-08 trig=  2.53891e-08
tphl                =  9.79400e-10 targ=  9.91467e-08 trig=  9.81673e-08
i_vdd_avg           =  -2.56652e-06 from=  1.00000e-08 to=  3.30004e-07
power_avg_uw        =  4.98860e+00


Total analysis time (seconds) = 1.32715

Total elapsed time (seconds) = 1.470 

Total DRAM available = 16384.000 MB.
DRAM currently available =  152.172 MB.
Maximum ngspice program size =   23.875 MB.
Current ngspice program size =   23.875 MB.

