
Note: Compatibility modes selected: hs a


Circuit: SKY130 library cell inv_1 A_to_Y

option SCALE: Scale is set to 1e-06 for instance and model parameters
Doing analysis at TEMP = 30.155923 and TNOM = 27.000000

Using KLU as Direct Linear Solver
 Reference value :  1.06175e-07
No. of Data Rows : 68032

  Measurements for Transient Analysis

tphl                =  1.06171e-09 targ=  2.76611e-08 trig=  2.65994e-08
tplh                =  2.15779e-09 targ=  1.03956e-07 trig=  1.01798e-07
i_vdd_avg           =  -1.69405e-06 from=  1.00000e-08 to=  3.30000e-07
power_avg_uw        =  3.29203e+00


Total analysis time (seconds) = 0.323801

Total elapsed time (seconds) = 0.457 

Total DRAM available = 16384.000 MB.
DRAM currently available =  132.047 MB.
Maximum ngspice program size =   23.219 MB.
Current ngspice program size =   23.219 MB.

