
Note: Compatibility modes selected: hs a


Circuit: SKY130 library cell oai21_1 A1_to_Y__A2=0,B1=1

option SCALE: Scale is set to 1e-06 for instance and model parameters
Doing analysis at TEMP = 55.115797 and TNOM = 27.000000

Using KLU as Direct Linear Solver
 Reference value :  3.12075e-08
 Reference value :  1.29439e-07
 Reference value :  2.29601e-07
 Reference value :  3.35044e-07
No. of Data Rows : 68034

  Measurements for Transient Analysis

tphl                =  2.27795e-09 targ=  3.10372e-08 trig=  2.87592e-08
tplh                =  4.24175e-09 targ=  1.12519e-07 trig=  1.08278e-07
i_vdd_avg           =  -1.74208e-06 from=  1.00000e-08 to=  3.30004e-07
power_avg_uw        =  3.43913e+00


Total analysis time (seconds) = 0.866917

Total elapsed time (seconds) = 1.019 

Total DRAM available = 16384.000 MB.
DRAM currently available =   78.078 MB.
Maximum ngspice program size =   25.516 MB.
Current ngspice program size =   25.516 MB.

