
Note: Compatibility modes selected: hs a


Circuit: SKY130 library cell nand2_1 A_to_Y__B=1

option SCALE: Scale is set to 1e-06 for instance and model parameters
Doing analysis at TEMP = 61.835915 and TNOM = 27.000000

Using KLU as Direct Linear Solver
 Reference value :  7.20516e-08
 Reference value :  2.36127e-07
No. of Data Rows : 68032

  Measurements for Transient Analysis

tphl                =  2.22097e-10 targ=  2.54641e-08 trig=  2.52421e-08
tplh                =  5.98089e-10 targ=  9.83242e-08 trig=  9.77262e-08
i_vdd_avg           =  -4.14431e-07 from=  1.00000e-08 to=  3.30001e-07
power_avg_uw        =  7.62888e-01


Total analysis time (seconds) = 0.527424

Total elapsed time (seconds) = 0.660 

Total DRAM available = 16384.000 MB.
DRAM currently available =   91.594 MB.
Maximum ngspice program size =   25.984 MB.
Current ngspice program size =   25.984 MB.

