
Note: Compatibility modes selected: hs a


Circuit: SKY130 library cell oai21_1 A1_to_Y__A2=0,B1=1

option SCALE: Scale is set to 1e-06 for instance and model parameters
Doing analysis at TEMP = 60.402952 and TNOM = 27.000000

Using KLU as Direct Linear Solver
 Reference value :  3.93624e-08
 Reference value :  1.50712e-07
 Reference value :  2.39122e-07
 Reference value :  3.33992e-07
No. of Data Rows : 68032

  Measurements for Transient Analysis

tphl                =  6.67153e-10 targ=  2.72421e-08 trig=  2.65749e-08
tplh                =  1.61785e-09 targ=  1.03343e-07 trig=  1.01725e-07
i_vdd_avg           =  -8.09596e-07 from=  1.00000e-08 to=  3.30002e-07
power_avg_uw        =  1.59408e+00


Total analysis time (seconds) = 0.864907

Total elapsed time (seconds) = 1.029 

Total DRAM available = 16384.000 MB.
DRAM currently available =   90.500 MB.
Maximum ngspice program size =   26.703 MB.
Current ngspice program size =   26.703 MB.

