
Note: Compatibility modes selected: hs a


Circuit: SKY130 library cell nand2_4 A_to_Y__B=1

option SCALE: Scale is set to 1e-06 for instance and model parameters
Doing analysis at TEMP = -32.450962 and TNOM = 27.000000

Using KLU as Direct Linear Solver
 Reference value :  1.37364e-08
 Reference value :  5.96734e-08
 Reference value :  1.08254e-07
 Reference value :  1.55064e-07
 Reference value :  1.97038e-07
 Reference value :  2.43493e-07
 Reference value :  2.87094e-07
 Reference value :  3.31424e-07
No. of Data Rows : 68032

  Measurements for Transient Analysis

tphl                =  1.13761e-09 targ=  2.86031e-08 trig=  2.74655e-08
tplh                =  2.26319e-09 targ=  1.06660e-07 trig=  1.04396e-07
i_vdd_avg           =  -1.84888e-06 from=  1.00000e-08 to=  3.30004e-07
power_avg_uw        =  3.48406e+00


Total analysis time (seconds) = 1.90834

Total elapsed time (seconds) = 2.057 

Total DRAM available = 16384.000 MB.
DRAM currently available =   95.531 MB.
Maximum ngspice program size =   26.656 MB.
Current ngspice program size =   26.656 MB.

