
Note: Compatibility modes selected: hs a


Circuit: SKY130 library cell xor2_1 A_to_X__B=0

option SCALE: Scale is set to 1e-06 for instance and model parameters
Doing analysis at TEMP = 55.363989 and TNOM = 27.000000

Using KLU as Direct Linear Solver
 Reference value :  1.82814e-08
 Reference value :  8.14405e-08
 Reference value :  1.46253e-07
 Reference value :  2.15650e-07
 Reference value :  2.82568e-07
No. of Data Rows : 68034

  Measurements for Transient Analysis

tplh                =  3.07997e-09 targ=  2.83090e-08 trig=  2.52290e-08
tphl                =  1.12849e-09 targ=  9.88155e-08 trig=  9.76870e-08
i_vdd_avg           =  -2.15778e-06 from=  1.00000e-08 to=  3.30003e-07
power_avg_uw        =  4.13570e+00


Total analysis time (seconds) = 1.32902

Total elapsed time (seconds) = 1.491 

Total DRAM available = 16384.000 MB.
DRAM currently available =  127.406 MB.
Maximum ngspice program size =   25.484 MB.
Current ngspice program size =   25.484 MB.

