
Note: Compatibility modes selected: hs a


Circuit: SKY130 library cell xor2_4 A_to_X__B=0

option SCALE: Scale is set to 1e-06 for instance and model parameters
Doing analysis at TEMP = 117.299450 and TNOM = 27.000000

Using KLU as Direct Linear Solver
 Reference value :  4.01640e-09
 Reference value :  2.08964e-08
 Reference value :  3.76595e-08
 Reference value :  5.44845e-08
 Reference value :  7.16495e-08
 Reference value :  8.94045e-08
 Reference value :  1.06587e-07
 Reference value :  1.23342e-07
 Reference value :  1.40252e-07
 Reference value :  1.56602e-07
 Reference value :  1.73397e-07
 Reference value :  1.90285e-07
 Reference value :  2.07860e-07
 Reference value :  2.25610e-07
 Reference value :  2.44155e-07
 Reference value :  2.61022e-07
 Reference value :  2.78292e-07
 Reference value :  2.95747e-07
 Reference value :  3.13057e-07
 Reference value :  3.31317e-07
No. of Data Rows : 68030

  Measurements for Transient Analysis

tplh                =  5.43810e-11 targ=  2.51704e-08 trig=  2.51160e-08
tphl                =  3.20634e-10 targ=  9.76687e-08 trig=  9.73481e-08
i_vdd_avg           =  -1.18670e-06 from=  1.00000e-08 to=  3.30002e-07
power_avg_uw        =  2.13706e+00


Total analysis time (seconds) = 4.97816

Total elapsed time (seconds) = 5.180 

Total DRAM available = 16384.000 MB.
DRAM currently available =   77.312 MB.
Maximum ngspice program size =   29.891 MB.
Current ngspice program size =   29.891 MB.

