
Note: Compatibility modes selected: hs a


Circuit: SKY130 library cell xor2_1 A_to_X__B=0

option SCALE: Scale is set to 1e-06 for instance and model parameters
Doing analysis at TEMP = 29.372341 and TNOM = 27.000000

Using KLU as Direct Linear Solver
 Reference value :  2.69875e-08
 Reference value :  9.56066e-08
 Reference value :  1.59511e-07
 Reference value :  2.27177e-07
 Reference value :  2.92866e-07
No. of Data Rows : 68032

  Measurements for Transient Analysis

tplh                =  1.06891e-10 targ=  2.65915e-08 trig=  2.64846e-08
tphl                =  7.50263e-10 targ=  1.02204e-07 trig=  1.01454e-07
i_vdd_avg           =  -6.39061e-07 from=  1.00000e-08 to=  3.30001e-07
power_avg_uw        =  1.16996e+00


Total analysis time (seconds) = 1.26834

Total elapsed time (seconds) = 1.427 

Total DRAM available = 16384.000 MB.
DRAM currently available =  144.906 MB.
Maximum ngspice program size =   25.297 MB.
Current ngspice program size =   25.297 MB.

