
Note: Compatibility modes selected: hs a


Circuit: SKY130 library cell xor2_1 A_to_X__B=0

option SCALE: Scale is set to 1e-06 for instance and model parameters
Doing analysis at TEMP = 5.860908 and TNOM = 27.000000

Using KLU as Direct Linear Solver
 Reference value :  2.18864e-08
 Reference value :  8.71568e-08
 Reference value :  1.53186e-07
 Reference value :  2.18942e-07
 Reference value :  2.88741e-07
No. of Data Rows : 68032

  Measurements for Transient Analysis

tplh                =  1.73114e-09 targ=  2.65108e-08 trig=  2.47797e-08
tphl                =  6.91414e-10 targ=  9.70304e-08 trig=  9.63390e-08
i_vdd_avg           =  -1.76046e-06 from=  1.00000e-08 to=  3.30001e-07
power_avg_uw        =  3.40722e+00


Total analysis time (seconds) = 1.2879

Total elapsed time (seconds) = 1.442 

Total DRAM available = 16384.000 MB.
DRAM currently available =  128.406 MB.
Maximum ngspice program size =   27.422 MB.
Current ngspice program size =   27.422 MB.

