
Note: Compatibility modes selected: hs a


Circuit: SKY130 library cell oai21_1 A1_to_Y__A2=0,B1=1

option SCALE: Scale is set to 1e-06 for instance and model parameters
Doing analysis at TEMP = 45.985039 and TNOM = 27.000000

Using KLU as Direct Linear Solver
 Reference value :  2.70775e-08
 Reference value :  1.33360e-07
 Reference value :  2.29574e-07
 Reference value :  3.25470e-07
No. of Data Rows : 68032

  Measurements for Transient Analysis

tphl                =  1.24793e-09 targ=  3.01109e-08 trig=  2.88630e-08
tplh                =  3.12542e-09 targ=  1.11714e-07 trig=  1.08589e-07
i_vdd_avg           =  -1.40607e-06 from=  1.00000e-08 to=  3.30005e-07
power_avg_uw        =  2.72875e+00


Total analysis time (seconds) = 0.888653

Total elapsed time (seconds) = 1.049 

Total DRAM available = 16384.000 MB.
DRAM currently available =  101.594 MB.
Maximum ngspice program size =   26.312 MB.
Current ngspice program size =   26.312 MB.

