
Note: Compatibility modes selected: hs a


Circuit: SKY130 library cell inv_4 A_to_Y

option SCALE: Scale is set to 1e-06 for instance and model parameters
Doing analysis at TEMP = -14.419035 and TNOM = 27.000000

Using KLU as Direct Linear Solver
 Reference value :  3.47455e-08
 Reference value :  1.28204e-07
 Reference value :  2.24261e-07
 Reference value :  3.08284e-07
No. of Data Rows : 68034

  Measurements for Transient Analysis

tphl                =  -1.81252e-10 targ=  2.54803e-08 trig=  2.56615e-08
tplh                =  4.30554e-10 targ=  9.94151e-08 trig=  9.89845e-08
i_vdd_avg           =  -2.96607e-07 from=  1.00000e-08 to=  3.30004e-07
power_avg_uw        =  5.12096e-01


Total analysis time (seconds) = 0.947292

Total elapsed time (seconds) = 1.097 

Total DRAM available = 16384.000 MB.
DRAM currently available =  147.094 MB.
Maximum ngspice program size =   26.469 MB.
Current ngspice program size =   26.469 MB.

