
Note: Compatibility modes selected: hs a


Circuit: SKY130 library cell xor2_1 A_to_X__B=0

option SCALE: Scale is set to 1e-06 for instance and model parameters
Doing analysis at TEMP = 72.947629 and TNOM = 27.000000

Using KLU as Direct Linear Solver
 Reference value :  2.18064e-08
 Reference value :  8.89963e-08
 Reference value :  1.57975e-07
 Reference value :  2.24046e-07
 Reference value :  2.89175e-07
No. of Data Rows : 68032

  Measurements for Transient Analysis

tplh                =  1.72665e-09 targ=  2.87260e-08 trig=  2.69994e-08
tphl                =  1.16583e-09 targ=  1.04164e-07 trig=  1.02998e-07
i_vdd_avg           =  -1.27561e-06 from=  1.00000e-08 to=  3.30000e-07
power_avg_uw        =  2.15474e+00


Total analysis time (seconds) = 1.29327

Total elapsed time (seconds) = 1.448 

Total DRAM available = 16384.000 MB.
DRAM currently available =  117.938 MB.
Maximum ngspice program size =   24.141 MB.
Current ngspice program size =   24.141 MB.

