
Note: Compatibility modes selected: hs a


Circuit: SKY130 library cell oai21_4 A1_to_Y__A2=0,B1=1

option SCALE: Scale is set to 1e-06 for instance and model parameters
Doing analysis at TEMP = 59.057100 and TNOM = 27.000000

Using KLU as Direct Linear Solver
 Reference value :  7.10140e-09
 Reference value :  3.18475e-08
 Reference value :  5.93949e-08
 Reference value :  8.75749e-08
 Reference value :  1.16252e-07
 Reference value :  1.41762e-07
 Reference value :  1.68982e-07
 Reference value :  1.95620e-07
 Reference value :  2.22940e-07
 Reference value :  2.51385e-07
 Reference value :  2.78042e-07
 Reference value :  3.05212e-07
 Reference value :  3.31377e-07
No. of Data Rows : 68030

  Measurements for Transient Analysis

tphl                =  -6.03465e-10 targ=  2.87527e-08 trig=  2.93562e-08
tplh                =  1.23025e-09 targ=  1.11299e-07 trig=  1.10069e-07
i_vdd_avg           =  -2.74042e-06 from=  1.00000e-08 to=  3.30002e-07
power_avg_uw        =  5.20056e+00


Total analysis time (seconds) = 3.3059

Total elapsed time (seconds) = 3.490 

Total DRAM available = 16384.000 MB.
DRAM currently available =  105.906 MB.
Maximum ngspice program size =   27.062 MB.
Current ngspice program size =   27.062 MB.

