
Note: Compatibility modes selected: hs a


Circuit: SKY130 library cell oai21_4 A1_to_Y__A2=0,B1=1

option SCALE: Scale is set to 1e-06 for instance and model parameters
Doing analysis at TEMP = -39.949648 and TNOM = 27.000000

Using KLU as Direct Linear Solver
 Reference value :  5.62640e-09
 Reference value :  3.04425e-08
 Reference value :  5.38162e-08
 Reference value :  7.82712e-08
 Reference value :  1.03401e-07
 Reference value :  1.27910e-07
 Reference value :  1.55195e-07
 Reference value :  1.81860e-07
 Reference value :  2.08161e-07
 Reference value :  2.33151e-07
 Reference value :  2.60546e-07
 Reference value :  2.86960e-07
 Reference value :  3.13340e-07
 Reference value :  3.38415e-07
No. of Data Rows : 68034

  Measurements for Transient Analysis

tphl                =  3.15005e-10 targ=  2.93119e-08 trig=  2.89969e-08
tplh                =  2.27108e-09 targ=  1.11262e-07 trig=  1.08991e-07
i_vdd_avg           =  -1.64979e-06 from=  1.00000e-08 to=  3.30005e-07
power_avg_uw        =  3.21128e+00


Total analysis time (seconds) = 3.6931

Total elapsed time (seconds) = 3.902 

Total DRAM available = 16384.000 MB.
DRAM currently available =  217.016 MB.
Maximum ngspice program size =   29.891 MB.
Current ngspice program size =   29.891 MB.

