
Note: Compatibility modes selected: hs a


Circuit: SKY130 library cell aoi21_4 A1_to_Y__A2=1,B1=0

option SCALE: Scale is set to 1e-06 for instance and model parameters
Doing analysis at TEMP = 19.351136 and TNOM = 27.000000

Using KLU as Direct Linear Solver
 Reference value :  5.83140e-09
 Reference value :  3.24529e-08
 Reference value :  6.22979e-08
 Reference value :  8.98479e-08
 Reference value :  1.19073e-07
 Reference value :  1.47363e-07
 Reference value :  1.76788e-07
 Reference value :  2.04008e-07
 Reference value :  2.31673e-07
 Reference value :  2.60338e-07
 Reference value :  2.87058e-07
 Reference value :  3.15388e-07
No. of Data Rows : 68032

  Measurements for Transient Analysis

tphl                =  5.09540e-10 targ=  2.68397e-08 trig=  2.63302e-08
tplh                =  1.37840e-09 targ=  1.02369e-07 trig=  1.00991e-07
i_vdd_avg           =  -1.68824e-06 from=  1.00000e-08 to=  3.30003e-07
power_avg_uw        =  3.15969e+00


Total analysis time (seconds) = 3.07196

Total elapsed time (seconds) = 3.258 

Total DRAM available = 16384.000 MB.
DRAM currently available =  115.594 MB.
Maximum ngspice program size =   26.297 MB.
Current ngspice program size =   26.297 MB.

