
Note: Compatibility modes selected: hs a


Circuit: SKY130 library cell inv_1 A_to_Y

option SCALE: Scale is set to 1e-06 for instance and model parameters
Doing analysis at TEMP = 93.254102 and TNOM = 27.000000

Using KLU as Direct Linear Solver
 Reference value :  1.18092e-07
No. of Data Rows : 68030

  Measurements for Transient Analysis

tphl                =  1.00988e-09 targ=  2.65986e-08 trig=  2.55887e-08
tplh                =  1.63199e-09 targ=  1.00398e-07 trig=  9.87662e-08
i_vdd_avg           =  -1.99196e-06 from=  1.00000e-08 to=  3.30002e-07
power_avg_uw        =  3.92750e+00


Total analysis time (seconds) = 0.327384

Total elapsed time (seconds) = 0.482 

Total DRAM available = 16384.000 MB.
DRAM currently available =   75.031 MB.
Maximum ngspice program size =   25.047 MB.
Current ngspice program size =   25.047 MB.

