
Note: Compatibility modes selected: hs a


Circuit: SKY130 library cell aoi21_4 A1_to_Y__A2=1,B1=0

option SCALE: Scale is set to 1e-06 for instance and model parameters
Doing analysis at TEMP = 47.598361 and TNOM = 27.000000

Using KLU as Direct Linear Solver
 Reference value :  8.90140e-09
 Reference value :  3.72337e-08
 Reference value :  6.47687e-08
 Reference value :  9.54037e-08
 Reference value :  1.24440e-07
 Reference value :  1.52750e-07
 Reference value :  1.81600e-07
 Reference value :  2.09014e-07
 Reference value :  2.37794e-07
 Reference value :  2.65309e-07
 Reference value :  2.91980e-07
 Reference value :  3.21055e-07
No. of Data Rows : 68032

  Measurements for Transient Analysis

tphl                =  -3.49223e-12 targ=  2.98521e-08 trig=  2.98556e-08
tplh                =  2.05129e-09 targ=  1.13618e-07 trig=  1.11567e-07
i_vdd_avg           =  -3.07149e-06 from=  1.00000e-08 to=  3.30005e-07
power_avg_uw        =  5.56247e+00


Total analysis time (seconds) = 3.05486

Total elapsed time (seconds) = 3.226 

Total DRAM available = 16384.000 MB.
DRAM currently available =  107.516 MB.
Maximum ngspice program size =   25.375 MB.
Current ngspice program size =   25.375 MB.

