
Note: Compatibility modes selected: hs a


Circuit: SKY130 library cell nand2_1 A_to_Y__B=1

option SCALE: Scale is set to 1e-06 for instance and model parameters
Doing analysis at TEMP = 120.370160 and TNOM = 27.000000

Using KLU as Direct Linear Solver
 Reference value :  5.46409e-08
 Reference value :  2.01136e-07
No. of Data Rows : 68034

  Measurements for Transient Analysis

tphl                =  4.89300e-11 targ=  2.41356e-08 trig=  2.40867e-08
tplh                =  6.27835e-11 targ=  9.43229e-08 trig=  9.42601e-08
i_vdd_avg           =  -4.06747e-08 from=  1.00000e-08 to=  3.30004e-07
power_avg_uw        =  7.35080e-02


Total analysis time (seconds) = 0.582505

Total elapsed time (seconds) = 0.736 

Total DRAM available = 16384.000 MB.
DRAM currently available =  111.547 MB.
Maximum ngspice program size =   26.094 MB.
Current ngspice program size =   26.094 MB.

