
Note: Compatibility modes selected: hs a


Circuit: SKY130 library cell inv_1 A_to_Y

option SCALE: Scale is set to 1e-06 for instance and model parameters
Doing analysis at TEMP = 42.816808 and TNOM = 27.000000

Using KLU as Direct Linear Solver
 Reference value :  1.28468e-07
No. of Data Rows : 68032

  Measurements for Transient Analysis

tphl                =  1.27545e-09 targ=  2.84056e-08 trig=  2.71302e-08
tplh                =  2.26323e-09 targ=  1.05654e-07 trig=  1.03391e-07
i_vdd_avg           =  -6.92250e-07 from=  1.00000e-08 to=  3.30003e-07
power_avg_uw        =  1.26003e+00


Total analysis time (seconds) = 0.317321

Total elapsed time (seconds) = 0.457 

Total DRAM available = 16384.000 MB.
DRAM currently available =  156.078 MB.
Maximum ngspice program size =   26.516 MB.
Current ngspice program size =   26.516 MB.

