
Note: Compatibility modes selected: hs a


Circuit: SKY130 library cell nand3_4 A_to_Y__B=1,C=1

option SCALE: Scale is set to 1e-06 for instance and model parameters
Doing analysis at TEMP = 8.051298 and TNOM = 27.000000

Using KLU as Direct Linear Solver
 Reference value :  7.39640e-09
 Reference value :  3.49641e-08
 Reference value :  6.30441e-08
 Reference value :  9.12641e-08
 Reference value :  1.19096e-07
 Reference value :  1.46061e-07
 Reference value :  1.74646e-07
 Reference value :  2.03019e-07
 Reference value :  2.30539e-07
 Reference value :  2.57591e-07
 Reference value :  2.85021e-07
 Reference value :  3.12896e-07
No. of Data Rows : 68030

  Measurements for Transient Analysis

tphl                =  3.44731e-10 targ=  2.47705e-08 trig=  2.44258e-08
tplh                =  4.53813e-10 targ=  9.57312e-08 trig=  9.52774e-08
i_vdd_avg           =  -1.40028e-06 from=  1.00000e-08 to=  3.30001e-07
power_avg_uw        =  2.55233e+00


Total analysis time (seconds) = 3.083

Total elapsed time (seconds) = 3.255 

Total DRAM available = 16384.000 MB.
DRAM currently available =  128.016 MB.
Maximum ngspice program size =   26.719 MB.
Current ngspice program size =   26.719 MB.

