
Note: Compatibility modes selected: hs a


Circuit: SKY130 library cell nor2_4 A_to_Y__B=0

option SCALE: Scale is set to 1e-06 for instance and model parameters
Doing analysis at TEMP = 15.857214 and TNOM = 27.000000

Using KLU as Direct Linear Solver
 Reference value :  1.41414e-08
 Reference value :  5.56162e-08
 Reference value :  9.98562e-08
 Reference value :  1.45375e-07
 Reference value :  1.89961e-07
 Reference value :  2.34866e-07
 Reference value :  2.81175e-07
 Reference value :  3.25190e-07
No. of Data Rows : 68034

  Measurements for Transient Analysis

tphl                =  7.87544e-10 targ=  2.68444e-08 trig=  2.60568e-08
tplh                =  1.77597e-09 targ=  1.01946e-07 trig=  1.00171e-07
i_vdd_avg           =  -2.20872e-06 from=  1.00000e-08 to=  3.30005e-07
power_avg_uw        =  4.25424e+00


Total analysis time (seconds) = 1.92675

Total elapsed time (seconds) = 2.095 

Total DRAM available = 16384.000 MB.
DRAM currently available =  117.859 MB.
Maximum ngspice program size =   24.406 MB.
Current ngspice program size =   24.406 MB.

