
Note: Compatibility modes selected: hs a


Circuit: SKY130 library cell mux2_4 A0_to_X__A1=0,S=0

option SCALE: Scale is set to 1e-06 for instance and model parameters
Doing analysis at TEMP = 70.625143 and TNOM = 27.000000

Using KLU as Direct Linear Solver
 Reference value :  9.21640e-09
 Reference value :  4.37349e-08
 Reference value :  8.00649e-08
 Reference value :  1.16777e-07
 Reference value :  1.54947e-07
 Reference value :  1.92040e-07
 Reference value :  2.28510e-07
 Reference value :  2.64277e-07
 Reference value :  2.99777e-07
 Reference value :  3.35482e-07
No. of Data Rows : 68030

  Measurements for Transient Analysis

tplh                =  3.69012e-10 targ=  2.58352e-08 trig=  2.54662e-08
tphl                =  7.62166e-10 targ=  9.91608e-08 trig=  9.83986e-08
i_vdd_avg           =  -2.50809e-06 from=  1.00000e-08 to=  3.30002e-07
power_avg_uw        =  4.48343e+00


Total analysis time (seconds) = 2.4123

Total elapsed time (seconds) = 2.589 

Total DRAM available = 16384.000 MB.
DRAM currently available =  168.359 MB.
Maximum ngspice program size =   24.844 MB.
Current ngspice program size =   24.844 MB.

