
Note: Compatibility modes selected: hs a


Circuit: SKY130 library cell nand3_4 A_to_Y__B=1,C=1

option SCALE: Scale is set to 1e-06 for instance and model parameters
Doing analysis at TEMP = 24.995340 and TNOM = 27.000000

Using KLU as Direct Linear Solver
 Reference value :  7.07140e-09
 Reference value :  3.39690e-08
 Reference value :  6.16440e-08
 Reference value :  8.94440e-08
 Reference value :  1.18905e-07
 Reference value :  1.45725e-07
 Reference value :  1.73095e-07
 Reference value :  2.02224e-07
 Reference value :  2.30494e-07
 Reference value :  2.57869e-07
 Reference value :  2.85520e-07
 Reference value :  3.13385e-07
No. of Data Rows : 68030

  Measurements for Transient Analysis

tphl                =  2.73270e-10 targ=  2.84240e-08 trig=  2.81507e-08
tplh                =  1.50625e-09 targ=  1.07958e-07 trig=  1.06452e-07
i_vdd_avg           =  -3.39353e-06 from=  1.00000e-08 to=  3.30000e-07
power_avg_uw        =  6.45757e+00


Total analysis time (seconds) = 3.1561

Total elapsed time (seconds) = 3.334 

Total DRAM available = 16384.000 MB.
DRAM currently available =  102.266 MB.
Maximum ngspice program size =   28.562 MB.
Current ngspice program size =   28.562 MB.

