
Note: Compatibility modes selected: hs a


Circuit: SKY130 library cell inv_1 A_to_Y

option SCALE: Scale is set to 1e-06 for instance and model parameters
Doing analysis at TEMP = 81.622850 and TNOM = 27.000000

Using KLU as Direct Linear Solver
 Reference value :  1.38357e-07
No. of Data Rows : 68030

  Measurements for Transient Analysis

tphl                =  1.54460e-09 targ=  2.74433e-08 trig=  2.58987e-08
tplh                =  2.29677e-09 targ=  1.01993e-07 trig=  9.96962e-08
i_vdd_avg           =  -1.18379e-06 from=  1.00000e-08 to=  3.30002e-07
power_avg_uw        =  1.98925e+00


Total analysis time (seconds) = 0.309829

Total elapsed time (seconds) = 0.435 

Total DRAM available = 16384.000 MB.
DRAM currently available =  132.047 MB.
Maximum ngspice program size =   25.344 MB.
Current ngspice program size =   25.344 MB.

