
Note: Compatibility modes selected: hs a


Circuit: SKY130 library cell oai21_4 A1_to_Y__A2=0,B1=1

option SCALE: Scale is set to 1e-06 for instance and model parameters
Doing analysis at TEMP = 44.231044 and TNOM = 27.000000

Using KLU as Direct Linear Solver
 Reference value :  7.40640e-09
 Reference value :  3.58739e-08
 Reference value :  6.46539e-08
 Reference value :  9.40889e-08
 Reference value :  1.21700e-07
 Reference value :  1.50830e-07
 Reference value :  1.79700e-07
 Reference value :  2.06654e-07
 Reference value :  2.33739e-07
 Reference value :  2.61580e-07
 Reference value :  2.90205e-07
 Reference value :  3.17435e-07
No. of Data Rows : 68030

  Measurements for Transient Analysis

tphl                =  2.09202e-10 targ=  2.45524e-08 trig=  2.43432e-08
tplh                =  3.89083e-10 targ=  9.54186e-08 trig=  9.50295e-08
i_vdd_avg           =  -5.55445e-07 from=  1.00000e-08 to=  3.30000e-07
power_avg_uw        =  1.03873e+00


Total analysis time (seconds) = 3.10041

Total elapsed time (seconds) = 3.276 

Total DRAM available = 16384.000 MB.
DRAM currently available =  154.078 MB.
Maximum ngspice program size =   27.422 MB.
Current ngspice program size =   27.422 MB.

