
Note: Compatibility modes selected: hs a


Circuit: SKY130 library cell inv_4 A_to_Y

option SCALE: Scale is set to 1e-06 for instance and model parameters
Doing analysis at TEMP = 58.558988 and TNOM = 27.000000

Using KLU as Direct Linear Solver
 Reference value :  3.78686e-08
 Reference value :  1.35930e-07
 Reference value :  2.31669e-07
 Reference value :  3.27690e-07
No. of Data Rows : 68032

  Measurements for Transient Analysis

tphl                =  1.27857e-09 targ=  2.92816e-08 trig=  2.80031e-08
tplh                =  2.32510e-09 targ=  1.08334e-07 trig=  1.06009e-07
i_vdd_avg           =  -2.07547e-06 from=  1.00000e-08 to=  3.30005e-07
power_avg_uw        =  3.71678e+00


Total analysis time (seconds) = 0.888537

Total elapsed time (seconds) = 1.033 

Total DRAM available = 16384.000 MB.
DRAM currently available =   85.891 MB.
Maximum ngspice program size =   26.094 MB.
Current ngspice program size =   26.094 MB.

