
Note: Compatibility modes selected: hs a


Circuit: SKY130 library cell nand2_1 A_to_Y__B=1

option SCALE: Scale is set to 1e-06 for instance and model parameters
Doing analysis at TEMP = 68.969295 and TNOM = 27.000000

Using KLU as Direct Linear Solver
 Reference value :  7.25214e-08
 Reference value :  2.42836e-07
No. of Data Rows : 68032

  Measurements for Transient Analysis

tphl                =  1.77064e-10 targ=  2.96015e-08 trig=  2.94245e-08
tplh                =  1.66190e-09 targ=  1.11935e-07 trig=  1.10273e-07
i_vdd_avg           =  -7.98874e-07 from=  1.00000e-08 to=  3.30000e-07
power_avg_uw        =  1.39939e+00


Total analysis time (seconds) = 0.50434

Total elapsed time (seconds) = 0.646 

Total DRAM available = 16384.000 MB.
DRAM currently available =  101.219 MB.
Maximum ngspice program size =   25.641 MB.
Current ngspice program size =   25.641 MB.

