
Note: Compatibility modes selected: hs a


Circuit: SKY130 library cell inv_1 A_to_Y

option SCALE: Scale is set to 1e-06 for instance and model parameters
Doing analysis at TEMP = 86.040847 and TNOM = 27.000000

Using KLU as Direct Linear Solver
 Reference value :  9.19136e-08
 Reference value :  3.37015e-07
No. of Data Rows : 68032

  Measurements for Transient Analysis

tphl                =  1.15626e-09 targ=  2.78468e-08 trig=  2.66906e-08
tplh                =  1.88591e-09 targ=  1.03958e-07 trig=  1.02072e-07
i_vdd_avg           =  -8.75161e-07 from=  1.00000e-08 to=  3.30005e-07
power_avg_uw        =  1.68091e+00


Total analysis time (seconds) = 0.340625

Total elapsed time (seconds) = 0.500 

Total DRAM available = 16384.000 MB.
DRAM currently available =  199.781 MB.
Maximum ngspice program size =   26.156 MB.
Current ngspice program size =   26.156 MB.

