
Note: Compatibility modes selected: hs a


Circuit: SKY130 library cell xor2_4 A_to_X__B=0

option SCALE: Scale is set to 1e-06 for instance and model parameters
Doing analysis at TEMP = -20.765691 and TNOM = 27.000000

Using KLU as Direct Linear Solver
 Reference value :  4.82140e-09
 Reference value :  2.18364e-08
 Reference value :  3.83911e-08
 Reference value :  5.52961e-08
 Reference value :  7.28011e-08
 Reference value :  9.01911e-08
 Reference value :  1.07101e-07
 Reference value :  1.24615e-07
 Reference value :  1.42465e-07
 Reference value :  1.59570e-07
 Reference value :  1.77305e-07
 Reference value :  1.93233e-07
 Reference value :  2.09896e-07
 Reference value :  2.27926e-07
 Reference value :  2.45446e-07
 Reference value :  2.62561e-07
 Reference value :  2.79570e-07
 Reference value :  2.97435e-07
 Reference value :  3.14985e-07
 Reference value :  3.31955e-07
No. of Data Rows : 68034

  Measurements for Transient Analysis

tplh                =  -8.08094e-10 targ=  2.86962e-08 trig=  2.95043e-08
tphl                =  1.28930e-09 targ=  1.11802e-07 trig=  1.10513e-07
i_vdd_avg           =  -1.70160e-06 from=  1.00000e-08 to=  3.30005e-07
power_avg_uw        =  3.23771e+00


Total analysis time (seconds) = 5.0191

Total elapsed time (seconds) = 5.195 

Total DRAM available = 16384.000 MB.
DRAM currently available =   91.062 MB.
Maximum ngspice program size =   28.609 MB.
Current ngspice program size =   28.609 MB.

