
Note: Compatibility modes selected: hs a


Circuit: SKY130 library cell aoi21_4 A1_to_Y__A2=1,B1=0

option SCALE: Scale is set to 1e-06 for instance and model parameters
Doing analysis at TEMP = 83.843126 and TNOM = 27.000000

Using KLU as Direct Linear Solver
 Reference value :  8.76640e-09
 Reference value :  3.42991e-08
 Reference value :  6.40941e-08
 Reference value :  9.13091e-08
 Reference value :  1.19851e-07
 Reference value :  1.49236e-07
 Reference value :  1.77856e-07
 Reference value :  2.06624e-07
 Reference value :  2.35419e-07
 Reference value :  2.63744e-07
 Reference value :  2.91666e-07
 Reference value :  3.20826e-07
No. of Data Rows : 68030

  Measurements for Transient Analysis

tphl                =  3.72048e-10 targ=  2.85304e-08 trig=  2.81583e-08
tplh                =  1.67311e-09 targ=  1.08148e-07 trig=  1.06475e-07
i_vdd_avg           =  -2.24343e-06 from=  1.00000e-08 to=  3.30001e-07
power_avg_uw        =  3.73709e+00


Total analysis time (seconds) = 3.06728

Total elapsed time (seconds) = 3.240 

Total DRAM available = 16384.000 MB.
DRAM currently available =  104.891 MB.
Maximum ngspice program size =   26.375 MB.
Current ngspice program size =   26.375 MB.

