
Note: Compatibility modes selected: hs a


Circuit: SKY130 library cell inv_1 A_to_Y

option SCALE: Scale is set to 1e-06 for instance and model parameters
Doing analysis at TEMP = -26.815120 and TNOM = 27.000000

Using KLU as Direct Linear Solver
 Reference value :  8.08297e-08
No. of Data Rows : 68030

  Measurements for Transient Analysis

tphl                =  6.53192e-10 targ=  2.92368e-08 trig=  2.85836e-08
tplh                =  2.91590e-09 targ=  1.10667e-07 trig=  1.07751e-07
i_vdd_avg           =  -1.77409e-06 from=  1.00000e-08 to=  3.30002e-07
power_avg_uw        =  3.32735e+00


Total analysis time (seconds) = 0.340894

Total elapsed time (seconds) = 0.506 

Total DRAM available = 16384.000 MB.
DRAM currently available =   75.031 MB.
Maximum ngspice program size =   24.609 MB.
Current ngspice program size =   24.609 MB.

