
Note: Compatibility modes selected: hs a


Circuit: SKY130 library cell nand2_4 A_to_Y__B=1

option SCALE: Scale is set to 1e-06 for instance and model parameters
Doing analysis at TEMP = 110.121500 and TNOM = 27.000000

Using KLU as Direct Linear Solver
 Reference value :  1.83514e-08
 Reference value :  6.31645e-08
 Reference value :  1.08719e-07
 Reference value :  1.55916e-07
 Reference value :  2.02699e-07
 Reference value :  2.49569e-07
 Reference value :  2.96181e-07
No. of Data Rows : 68030

  Measurements for Transient Analysis

tphl                =  2.07020e-11 targ=  2.86992e-08 trig=  2.86785e-08
tplh                =  7.36613e-10 targ=  1.08772e-07 trig=  1.08035e-07
i_vdd_avg           =  -1.13317e-06 from=  1.00000e-08 to=  3.30001e-07
power_avg_uw        =  2.00458e+00


Total analysis time (seconds) = 1.85483

Total elapsed time (seconds) = 2.004 

Total DRAM available = 16384.000 MB.
DRAM currently available =   94.703 MB.
Maximum ngspice program size =   28.719 MB.
Current ngspice program size =   28.719 MB.

