
Note: Compatibility modes selected: hs a


Circuit: SKY130 library cell oai21_4 A1_to_Y__A2=0,B1=1

option SCALE: Scale is set to 1e-06 for instance and model parameters
Doing analysis at TEMP = 40.204315 and TNOM = 27.000000

Using KLU as Direct Linear Solver
 Reference value :  8.82140e-09
 Reference value :  3.58028e-08
 Reference value :  6.40178e-08
 Reference value :  9.36428e-08
 Reference value :  1.21838e-07
 Reference value :  1.49618e-07
 Reference value :  1.76898e-07
 Reference value :  2.04473e-07
 Reference value :  2.31878e-07
 Reference value :  2.60408e-07
 Reference value :  2.88238e-07
 Reference value :  3.16083e-07
No. of Data Rows : 68032

  Measurements for Transient Analysis

tphl                =  3.85928e-10 targ=  2.63486e-08 trig=  2.59627e-08
tplh                =  1.26268e-09 targ=  1.01151e-07 trig=  9.98880e-08
i_vdd_avg           =  -2.14272e-06 from=  1.00000e-08 to=  3.30003e-07
power_avg_uw        =  3.74558e+00


Total analysis time (seconds) = 3.06002

Total elapsed time (seconds) = 3.226 

Total DRAM available = 16384.000 MB.
DRAM currently available =  147.109 MB.
Maximum ngspice program size =   25.516 MB.
Current ngspice program size =   25.516 MB.

