
Note: Compatibility modes selected: hs a


Circuit: SKY130 library cell nor2_4 A_to_Y__B=0

option SCALE: Scale is set to 1e-06 for instance and model parameters
Doing analysis at TEMP = 104.616240 and TNOM = 27.000000

Using KLU as Direct Linear Solver
 Reference value :  1.33764e-08
 Reference value :  5.69591e-08
 Reference value :  1.02429e-07
 Reference value :  1.45796e-07
 Reference value :  1.90578e-07
 Reference value :  2.33084e-07
 Reference value :  2.76951e-07
 Reference value :  3.25181e-07
No. of Data Rows : 68030

  Measurements for Transient Analysis

tphl                =  1.81479e-10 targ=  2.88748e-08 trig=  2.86933e-08
tplh                =  8.68016e-10 targ=  1.08948e-07 trig=  1.08080e-07
i_vdd_avg           =  -6.51072e-07 from=  1.00000e-08 to=  3.30001e-07
power_avg_uw        =  1.23449e+00


Total analysis time (seconds) = 1.96791

Total elapsed time (seconds) = 2.127 

Total DRAM available = 16384.000 MB.
DRAM currently available =  108.469 MB.
Maximum ngspice program size =   26.359 MB.
Current ngspice program size =   26.359 MB.

