
Note: Compatibility modes selected: hs a


Circuit: SKY130 library cell xor2_1 A_to_X__B=0

option SCALE: Scale is set to 1e-06 for instance and model parameters
Doing analysis at TEMP = 14.876396 and TNOM = 27.000000

Using KLU as Direct Linear Solver
 Reference value :  2.70325e-08
 Reference value :  9.20307e-08
 Reference value :  1.54429e-07
 Reference value :  2.15666e-07
 Reference value :  2.78674e-07
No. of Data Rows : 68034

  Measurements for Transient Analysis

tplh                =  3.54166e-09 targ=  2.91233e-08 trig=  2.55816e-08
tphl                =  1.32697e-09 targ=  1.00072e-07 trig=  9.87448e-08
i_vdd_avg           =  -1.92798e-06 from=  1.00000e-08 to=  3.30004e-07
power_avg_uw        =  3.14153e+00


Total analysis time (seconds) = 1.35911

Total elapsed time (seconds) = 1.505 

Total DRAM available = 16384.000 MB.
DRAM currently available =  127.406 MB.
Maximum ngspice program size =   25.781 MB.
Current ngspice program size =   25.781 MB.

