
Note: Compatibility modes selected: hs a


Circuit: SKY130 library cell oai21_4 A1_to_Y__A2=0,B1=1

option SCALE: Scale is set to 1e-06 for instance and model parameters
Doing analysis at TEMP = 113.578490 and TNOM = 27.000000

Using KLU as Direct Linear Solver
 Reference value :  6.83640e-09
 Reference value :  3.26175e-08
 Reference value :  5.75932e-08
 Reference value :  8.35732e-08
 Reference value :  1.10728e-07
 Reference value :  1.38859e-07
 Reference value :  1.66659e-07
 Reference value :  1.95723e-07
 Reference value :  2.23758e-07
 Reference value :  2.52263e-07
 Reference value :  2.79044e-07
 Reference value :  3.05379e-07
 Reference value :  3.33999e-07
No. of Data Rows : 68032

  Measurements for Transient Analysis

tphl                =  8.94597e-10 targ=  3.01049e-08 trig=  2.92103e-08
tplh                =  1.68270e-09 targ=  1.11314e-07 trig=  1.09631e-07
i_vdd_avg           =  -1.17300e-06 from=  1.00000e-08 to=  3.30004e-07
power_avg_uw        =  2.15644e+00


Total analysis time (seconds) = 3.19902

Total elapsed time (seconds) = 3.375 

Total DRAM available = 16384.000 MB.
DRAM currently available =  233.141 MB.
Maximum ngspice program size =   27.438 MB.
Current ngspice program size =   27.438 MB.

