
Note: Compatibility modes selected: hs a


Circuit: SKY130 library cell xor2_1 A_to_X__B=0

option SCALE: Scale is set to 1e-06 for instance and model parameters
Doing analysis at TEMP = 82.047101 and TNOM = 27.000000

Using KLU as Direct Linear Solver
 Reference value :  2.48225e-08
 Reference value :  8.92088e-08
 Reference value :  1.53625e-07
 Reference value :  2.21609e-07
 Reference value :  2.87210e-07
No. of Data Rows : 68030

  Measurements for Transient Analysis

tplh                =  1.56191e-09 targ=  2.75726e-08 trig=  2.60107e-08
tphl                =  9.44272e-10 targ=  1.00976e-07 trig=  1.00032e-07
i_vdd_avg           =  -1.66877e-06 from=  1.00000e-08 to=  3.30000e-07
power_avg_uw        =  2.74690e+00


Total analysis time (seconds) = 1.31771

Total elapsed time (seconds) = 1.470 

Total DRAM available = 16384.000 MB.
DRAM currently available =   90.078 MB.
Maximum ngspice program size =   26.688 MB.
Current ngspice program size =   26.688 MB.

