
Note: Compatibility modes selected: hs a


Circuit: SKY130 library cell inv_1 A_to_Y

option SCALE: Scale is set to 1e-06 for instance and model parameters
Doing analysis at TEMP = 113.072140 and TNOM = 27.000000

Using KLU as Direct Linear Solver
 Reference value :  1.26788e-07
No. of Data Rows : 68032

  Measurements for Transient Analysis

tphl                =  8.05455e-10 targ=  3.04107e-08 trig=  2.96052e-08
tplh                =  2.56103e-09 targ=  1.13377e-07 trig=  1.10816e-07
i_vdd_avg           =  -2.39102e-06 from=  1.00000e-08 to=  3.30003e-07
power_avg_uw        =  4.45923e+00


Total analysis time (seconds) = 0.336473

Total elapsed time (seconds) = 0.468 

Total DRAM available = 16384.000 MB.
DRAM currently available =  156.078 MB.
Maximum ngspice program size =   26.234 MB.
Current ngspice program size =   26.234 MB.

