
Note: Compatibility modes selected: hs a


Circuit: SKY130 library cell xor2_1 A_to_X__B=0

option SCALE: Scale is set to 1e-06 for instance and model parameters
Doing analysis at TEMP = 58.932989 and TNOM = 27.000000

Using KLU as Direct Linear Solver
 Reference value :  2.12714e-08
 Reference value :  8.83682e-08
 Reference value :  1.56479e-07
 Reference value :  2.23418e-07
 Reference value :  2.90729e-07
No. of Data Rows : 68032

  Measurements for Transient Analysis

tplh                =  2.92033e-10 targ=  2.75899e-08 trig=  2.72978e-08
tphl                =  8.82836e-10 targ=  1.04776e-07 trig=  1.03894e-07
i_vdd_avg           =  -3.42389e-07 from=  1.00000e-08 to=  3.30004e-07
power_avg_uw        =  5.98894e-01


Total analysis time (seconds) = 1.28724

Total elapsed time (seconds) = 1.445 

Total DRAM available = 16384.000 MB.
DRAM currently available =   92.969 MB.
Maximum ngspice program size =   26.578 MB.
Current ngspice program size =   26.578 MB.

