
Note: Compatibility modes selected: hs a


Circuit: SKY130 library cell nor2_4 A_to_Y__B=0

option SCALE: Scale is set to 1e-06 for instance and model parameters
Doing analysis at TEMP = 40.152152 and TNOM = 27.000000

Using KLU as Direct Linear Solver
 Reference value :  1.46614e-08
 Reference value :  5.96377e-08
 Reference value :  1.01928e-07
 Reference value :  1.46573e-07
 Reference value :  1.91703e-07
 Reference value :  2.33558e-07
 Reference value :  2.75313e-07
 Reference value :  3.19153e-07
No. of Data Rows : 68032

  Measurements for Transient Analysis

tphl                =  6.99867e-10 targ=  2.61525e-08 trig=  2.54526e-08
tplh                =  1.40213e-09 targ=  9.97599e-08 trig=  9.83578e-08
i_vdd_avg           =  -1.10132e-06 from=  1.00000e-08 to=  3.30003e-07
power_avg_uw        =  1.85475e+00


Total analysis time (seconds) = 1.9815

Total elapsed time (seconds) = 2.147 

Total DRAM available = 16384.000 MB.
DRAM currently available =  103.453 MB.
Maximum ngspice program size =   28.703 MB.
Current ngspice program size =   28.703 MB.

