
Note: Compatibility modes selected: hs a


Circuit: SKY130 library cell inv_1 A_to_Y

option SCALE: Scale is set to 1e-06 for instance and model parameters
Doing analysis at TEMP = 0.790559 and TNOM = 27.000000

Using KLU as Direct Linear Solver
 Reference value :  1.12929e-07
No. of Data Rows : 68034

  Measurements for Transient Analysis

tphl                =  5.76580e-10 targ=  2.59182e-08 trig=  2.53417e-08
tplh                =  1.06222e-09 targ=  9.90872e-08 trig=  9.80250e-08
i_vdd_avg           =  -1.45385e-07 from=  1.00000e-08 to=  3.30004e-07
power_avg_uw        =  2.35726e-01


Total analysis time (seconds) = 0.314733

Total elapsed time (seconds) = 0.452 

Total DRAM available = 16384.000 MB.
DRAM currently available =  336.047 MB.
Maximum ngspice program size =   25.016 MB.
Current ngspice program size =   25.016 MB.

