
Note: Compatibility modes selected: hs a


Circuit: SKY130 library cell inv_4 A_to_Y

option SCALE: Scale is set to 1e-06 for instance and model parameters
Doing analysis at TEMP = -0.457358 and TNOM = 27.000000

Using KLU as Direct Linear Solver
 Reference value :  3.86010e-08
 Reference value :  1.33159e-07
 Reference value :  2.22511e-07
 Reference value :  3.15914e-07
No. of Data Rows : 68034

  Measurements for Transient Analysis

tphl                =  2.86621e-10 targ=  2.76309e-08 trig=  2.73442e-08
tplh                =  1.45909e-09 targ=  1.05492e-07 trig=  1.04033e-07
i_vdd_avg           =  -2.02224e-06 from=  1.00000e-08 to=  3.30004e-07
power_avg_uw        =  3.96448e+00


Total analysis time (seconds) = 0.92519

Total elapsed time (seconds) = 1.061 

Total DRAM available = 16384.000 MB.
DRAM currently available =  151.125 MB.
Maximum ngspice program size =   25.469 MB.
Current ngspice program size =   25.469 MB.

