
Note: Compatibility modes selected: hs a


Circuit: SKY130 library cell xor2_1 A_to_X__B=0

option SCALE: Scale is set to 1e-06 for instance and model parameters
Doing analysis at TEMP = 50.132843 and TNOM = 27.000000

Using KLU as Direct Linear Solver
 Reference value :  2.34164e-08
 Reference value :  9.29446e-08
 Reference value :  1.61182e-07
 Reference value :  2.31525e-07
 Reference value :  2.98762e-07
No. of Data Rows : 68030

  Measurements for Transient Analysis

tplh                =  6.58520e-10 targ=  2.73846e-08 trig=  2.67261e-08
tphl                =  9.89589e-10 targ=  1.03168e-07 trig=  1.02178e-07
i_vdd_avg           =  -1.95039e-06 from=  1.00000e-08 to=  3.30002e-07
power_avg_uw        =  3.85251e+00


Total analysis time (seconds) = 1.24294

Total elapsed time (seconds) = 1.404 

Total DRAM available = 16384.000 MB.
DRAM currently available =  118.609 MB.
Maximum ngspice program size =   26.797 MB.
Current ngspice program size =   26.797 MB.

