
Note: Compatibility modes selected: hs a


Circuit: SKY130 library cell nand2_4 A_to_Y__B=1

option SCALE: Scale is set to 1e-06 for instance and model parameters
Doing analysis at TEMP = 35.603722 and TNOM = 27.000000

Using KLU as Direct Linear Solver
 Reference value :  1.79514e-08
 Reference value :  6.50541e-08
 Reference value :  1.12781e-07
 Reference value :  1.60196e-07
 Reference value :  2.08809e-07
 Reference value :  2.55344e-07
 Reference value :  2.99651e-07
No. of Data Rows : 68030

  Measurements for Transient Analysis

tphl                =  1.14613e-09 targ=  2.68919e-08 trig=  2.57458e-08
tplh                =  1.58352e-09 targ=  1.00821e-07 trig=  9.92374e-08
i_vdd_avg           =  -1.51325e-06 from=  1.00000e-08 to=  3.30001e-07
power_avg_uw        =  2.46647e+00


Total analysis time (seconds) = 1.82992

Total elapsed time (seconds) = 1.984 

Total DRAM available = 16384.000 MB.
DRAM currently available =  137.125 MB.
Maximum ngspice program size =   26.172 MB.
Current ngspice program size =   26.172 MB.

