
Note: Compatibility modes selected: hs a


Circuit: SKY130 library cell inv_1 A_to_Y

option SCALE: Scale is set to 1e-06 for instance and model parameters
Doing analysis at TEMP = 92.716904 and TNOM = 27.000000

Using KLU as Direct Linear Solver
 Reference value :  7.90437e-08
No. of Data Rows : 68032

  Measurements for Transient Analysis

tphl                =  9.45113e-10 targ=  3.02307e-08 trig=  2.92856e-08
tplh                =  2.69200e-09 targ=  1.12549e-07 trig=  1.09857e-07
i_vdd_avg           =  -1.45406e-06 from=  1.00000e-08 to=  3.30005e-07
power_avg_uw        =  2.41179e+00


Total analysis time (seconds) = 0.334722

Total elapsed time (seconds) = 0.486 

Total DRAM available = 16384.000 MB.
DRAM currently available =  199.781 MB.
Maximum ngspice program size =   25.078 MB.
Current ngspice program size =   25.078 MB.

