
Note: Compatibility modes selected: hs a


Circuit: SKY130 library cell xor2_4 A_to_X__B=0

option SCALE: Scale is set to 1e-06 for instance and model parameters
Doing analysis at TEMP = 55.930106 and TNOM = 27.000000

Using KLU as Direct Linear Solver
 Reference value :  3.52640e-09
 Reference value :  2.06614e-08
 Reference value :  3.63225e-08
 Reference value :  5.32375e-08
 Reference value :  6.97225e-08
 Reference value :  8.68425e-08
 Reference value :  1.03782e-07
 Reference value :  1.20762e-07
 Reference value :  1.38972e-07
 Reference value :  1.56342e-07
 Reference value :  1.74352e-07
 Reference value :  1.91122e-07
 Reference value :  2.08252e-07
 Reference value :  2.25217e-07
 Reference value :  2.42787e-07
 Reference value :  2.60132e-07
 Reference value :  2.77952e-07
 Reference value :  2.94857e-07
 Reference value :  3.10342e-07
 Reference value :  3.26512e-07
No. of Data Rows : 68032

  Measurements for Transient Analysis

tplh                =  4.62641e-10 targ=  2.65701e-08 trig=  2.61075e-08
tphl                =  7.24477e-10 targ=  1.01047e-07 trig=  1.00322e-07
i_vdd_avg           =  -9.29532e-07 from=  1.00000e-08 to=  3.30002e-07
power_avg_uw        =  1.74956e+00


Total analysis time (seconds) = 5.07218

Total elapsed time (seconds) = 5.258 

Total DRAM available = 16384.000 MB.
DRAM currently available =   98.797 MB.
Maximum ngspice program size =   27.391 MB.
Current ngspice program size =   27.391 MB.

