Note: Starting dynamic gmin stepping
Note: Dynamic gmin stepping completed

Note: Compatibility modes selected: hs a


Circuit: SKY130 library cell mux2_4 A0_to_X__A1=0,S=0

option SCALE: Scale is set to 1e-06 for instance and model parameters
Doing analysis at TEMP = -23.563417 and TNOM = 27.000000

Using KLU as Direct Linear Solver
 Reference value :  8.53140e-09
 Reference value :  4.44525e-08
 Reference value :  8.17575e-08
 Reference value :  1.18418e-07
 Reference value :  1.51418e-07
 Reference value :  1.88418e-07
 Reference value :  2.23653e-07
 Reference value :  2.59468e-07
 Reference value :  2.96218e-07
 Reference value :  3.31413e-07
No. of Data Rows : 68032

  Measurements for Transient Analysis

tplh                =  8.07297e-11 targ=  2.62157e-08 trig=  2.61350e-08
tphl                =  8.82944e-10 targ=  1.01288e-07 trig=  1.00405e-07
i_vdd_avg           =  -1.61730e-06 from=  1.00000e-08 to=  3.30003e-07
power_avg_uw        =  3.13511e+00


Total analysis time (seconds) = 2.40281

Total elapsed time (seconds) = 2.593 

Total DRAM available = 16384.000 MB.
DRAM currently available =  113.406 MB.
Maximum ngspice program size =   28.531 MB.
Current ngspice program size =   28.531 MB.

