
Note: Compatibility modes selected: hs a


Circuit: SKY130 library cell aoi21_1 A1_to_Y__A2=1,B1=0

option SCALE: Scale is set to 1e-06 for instance and model parameters
Doing analysis at TEMP = 89.763533 and TNOM = 27.000000

Using KLU as Direct Linear Solver
 Reference value :  3.24175e-08
 Reference value :  1.29898e-07
 Reference value :  2.30563e-07
 Reference value :  3.30628e-07
No. of Data Rows : 68032

  Measurements for Transient Analysis

tphl                =  7.32759e-10 targ=  2.62278e-08 trig=  2.54950e-08
tplh                =  1.47040e-09 targ=  9.99554e-08 trig=  9.84850e-08
i_vdd_avg           =  -1.06117e-06 from=  1.00000e-08 to=  3.30003e-07
power_avg_uw        =  1.86723e+00


Total analysis time (seconds) = 0.8737

Total elapsed time (seconds) = 1.036 

Total DRAM available = 16384.000 MB.
DRAM currently available =  129.766 MB.
Maximum ngspice program size =   24.734 MB.
Current ngspice program size =   24.734 MB.

