
Note: Compatibility modes selected: hs a


Circuit: SKY130 library cell nand3_4 A_to_Y__B=1,C=1

option SCALE: Scale is set to 1e-06 for instance and model parameters
Doing analysis at TEMP = 84.159139 and TNOM = 27.000000

Using KLU as Direct Linear Solver
 Reference value :  7.44140e-09
 Reference value :  3.37313e-08
 Reference value :  6.30013e-08
 Reference value :  8.97863e-08
 Reference value :  1.16275e-07
 Reference value :  1.43760e-07
 Reference value :  1.71520e-07
 Reference value :  1.99241e-07
 Reference value :  2.26406e-07
 Reference value :  2.53021e-07
 Reference value :  2.82585e-07
 Reference value :  3.10540e-07
 Reference value :  3.38545e-07
No. of Data Rows : 68032

  Measurements for Transient Analysis

tphl                =  9.58496e-11 targ=  2.41753e-08 trig=  2.40794e-08
tplh                =  9.92637e-11 targ=  9.43375e-08 trig=  9.42382e-08
i_vdd_avg           =  -4.36714e-07 from=  1.00000e-08 to=  3.30000e-07
power_avg_uw        =  8.07185e-01


Total analysis time (seconds) = 3.17827

Total elapsed time (seconds) = 3.355 

Total DRAM available = 16384.000 MB.
DRAM currently available =  102.266 MB.
Maximum ngspice program size =   28.953 MB.
Current ngspice program size =   28.953 MB.

