
Note: Compatibility modes selected: hs a


Circuit: SKY130 library cell nor2_1 A_to_Y__B=0

option SCALE: Scale is set to 1e-06 for instance and model parameters
Doing analysis at TEMP = 103.011540 and TNOM = 27.000000

Using KLU as Direct Linear Solver
 Reference value :  5.09469e-08
 Reference value :  2.12252e-07
No. of Data Rows : 68032

  Measurements for Transient Analysis

tphl                =  5.24992e-10 targ=  2.71747e-08 trig=  2.66497e-08
tplh                =  1.33332e-09 targ=  1.03282e-07 trig=  1.01949e-07
i_vdd_avg           =  -3.73355e-07 from=  1.00000e-08 to=  3.30001e-07
power_avg_uw        =  6.39063e-01


Total analysis time (seconds) = 0.567911

Total elapsed time (seconds) = 0.722 

Total DRAM available = 16384.000 MB.
DRAM currently available =   87.938 MB.
Maximum ngspice program size =   27.797 MB.
Current ngspice program size =   27.797 MB.

