
Note: Compatibility modes selected: hs a


Circuit: SKY130 library cell oai21_4 A1_to_Y__A2=0,B1=1

option SCALE: Scale is set to 1e-06 for instance and model parameters
Doing analysis at TEMP = 55.411413 and TNOM = 27.000000

Using KLU as Direct Linear Solver
 Reference value :  6.30140e-09
 Reference value :  3.47230e-08
 Reference value :  6.23980e-08
 Reference value :  8.77330e-08
 Reference value :  1.15359e-07
 Reference value :  1.42634e-07
 Reference value :  1.70874e-07
 Reference value :  1.99543e-07
 Reference value :  2.26693e-07
 Reference value :  2.52373e-07
 Reference value :  2.78774e-07
 Reference value :  3.07324e-07
 Reference value :  3.35224e-07
No. of Data Rows : 68032

  Measurements for Transient Analysis

tphl                =  5.16113e-10 targ=  2.77514e-08 trig=  2.72353e-08
tplh                =  1.44343e-09 targ=  1.05149e-07 trig=  1.03706e-07
i_vdd_avg           =  -6.97284e-07 from=  1.00000e-08 to=  3.30004e-07
power_avg_uw        =  1.13744e+00


Total analysis time (seconds) = 3.22876

Total elapsed time (seconds) = 3.408 

Total DRAM available = 16384.000 MB.
DRAM currently available =  154.078 MB.
Maximum ngspice program size =   26.719 MB.
Current ngspice program size =   26.719 MB.

