
Note: Compatibility modes selected: hs a


Circuit: SKY130 library cell nand2_4 A_to_Y__B=1

option SCALE: Scale is set to 1e-06 for instance and model parameters
Doing analysis at TEMP = 105.726220 and TNOM = 27.000000

Using KLU as Direct Linear Solver
 Reference value :  1.51814e-08
 Reference value :  6.03801e-08
 Reference value :  1.05488e-07
 Reference value :  1.49753e-07
 Reference value :  1.94980e-07
 Reference value :  2.39990e-07
 Reference value :  2.82278e-07
 Reference value :  3.30603e-07
No. of Data Rows : 68034

  Measurements for Transient Analysis

tphl                =  1.61902e-10 targ=  2.54907e-08 trig=  2.53288e-08
tplh                =  4.69322e-10 targ=  9.84558e-08 trig=  9.79864e-08
i_vdd_avg           =  -1.30935e-06 from=  1.00000e-08 to=  3.30003e-07
power_avg_uw        =  2.33700e+00


Total analysis time (seconds) = 1.92637

Total elapsed time (seconds) = 2.079 

Total DRAM available = 16384.000 MB.
DRAM currently available =  107.953 MB.
Maximum ngspice program size =   25.328 MB.
Current ngspice program size =   25.328 MB.

