
Note: Compatibility modes selected: hs a


Circuit: SKY130 library cell inv_1 A_to_Y

option SCALE: Scale is set to 1e-06 for instance and model parameters
Doing analysis at TEMP = 21.402637 and TNOM = 27.000000

Using KLU as Direct Linear Solver
 Reference value :  9.60415e-08
No. of Data Rows : 68032

  Measurements for Transient Analysis

tphl                =  9.54845e-10 targ=  2.87619e-08 trig=  2.78070e-08
tplh                =  2.72947e-09 targ=  1.08151e-07 trig=  1.05421e-07
i_vdd_avg           =  -1.78207e-06 from=  1.00000e-08 to=  3.30001e-07
power_avg_uw        =  3.13792e+00


Total analysis time (seconds) = 0.345926

Total elapsed time (seconds) = 0.495 

Total DRAM available = 16384.000 MB.
DRAM currently available =  199.781 MB.
Maximum ngspice program size =   26.453 MB.
Current ngspice program size =   26.453 MB.

