
Note: Compatibility modes selected: hs a


Circuit: SKY130 library cell mux2_4 A0_to_X__A1=0,S=0

option SCALE: Scale is set to 1e-06 for instance and model parameters
Doing analysis at TEMP = 90.440935 and TNOM = 27.000000

Using KLU as Direct Linear Solver
 Reference value :  1.24564e-08
 Reference value :  4.68229e-08
 Reference value :  8.27879e-08
 Reference value :  1.19883e-07
 Reference value :  1.55823e-07
 Reference value :  1.90598e-07
 Reference value :  2.25218e-07
 Reference value :  2.60713e-07
 Reference value :  2.95573e-07
 Reference value :  3.31593e-07
No. of Data Rows : 68032

  Measurements for Transient Analysis

tplh                =  1.38616e-09 targ=  3.02863e-08 trig=  2.89002e-08
tphl                =  2.09497e-09 targ=  1.10795e-07 trig=  1.08701e-07
i_vdd_avg           =  -1.81293e-06 from=  1.00000e-08 to=  3.30003e-07
power_avg_uw        =  3.15618e+00


Total analysis time (seconds) = 2.44467

Total elapsed time (seconds) = 2.610 

Total DRAM available = 16384.000 MB.
DRAM currently available =  153.906 MB.
Maximum ngspice program size =   25.438 MB.
Current ngspice program size =   25.438 MB.

