
Note: Compatibility modes selected: hs a


Circuit: SKY130 library cell inv_1 A_to_Y

option SCALE: Scale is set to 1e-06 for instance and model parameters
Doing analysis at TEMP = 35.255133 and TNOM = 27.000000

Using KLU as Direct Linear Solver
 Reference value :  1.05647e-07
No. of Data Rows : 68030

  Measurements for Transient Analysis

tphl                =  8.20004e-10 targ=  2.65837e-08 trig=  2.57637e-08
tplh                =  1.72648e-09 targ=  1.01018e-07 trig=  9.92912e-08
i_vdd_avg           =  -1.37995e-06 from=  1.00000e-08 to=  3.30002e-07
power_avg_uw        =  2.30518e+00


Total analysis time (seconds) = 0.320612

Total elapsed time (seconds) = 0.463 

Total DRAM available = 16384.000 MB.
DRAM currently available =  132.047 MB.
Maximum ngspice program size =   25.062 MB.
Current ngspice program size =   25.062 MB.

