
Note: Compatibility modes selected: hs a


Circuit: SKY130 library cell oai21_4 A1_to_Y__A2=0,B1=1

option SCALE: Scale is set to 1e-06 for instance and model parameters
Doing analysis at TEMP = -31.991134 and TNOM = 27.000000

Using KLU as Direct Linear Solver
 Reference value :  8.15140e-09
 Reference value :  3.75864e-08
 Reference value :  6.60114e-08
 Reference value :  9.47164e-08
 Reference value :  1.22565e-07
 Reference value :  1.49825e-07
 Reference value :  1.78060e-07
 Reference value :  2.05571e-07
 Reference value :  2.33846e-07
 Reference value :  2.61711e-07
 Reference value :  2.90725e-07
 Reference value :  3.18655e-07
No. of Data Rows : 68032

  Measurements for Transient Analysis

tphl                =  3.93983e-10 targ=  2.84859e-08 trig=  2.80919e-08
tplh                =  1.93960e-09 targ=  1.08215e-07 trig=  1.06276e-07
i_vdd_avg           =  -3.73342e-07 from=  1.00000e-08 to=  3.30000e-07
power_avg_uw        =  6.18634e-01


Total analysis time (seconds) = 3.04075

Total elapsed time (seconds) = 3.210 

Total DRAM available = 16384.000 MB.
DRAM currently available =  150.422 MB.
Maximum ngspice program size =   25.234 MB.
Current ngspice program size =   25.234 MB.

