
Note: Compatibility modes selected: hs a


Circuit: SKY130 library cell aoi21_4 A1_to_Y__A2=1,B1=0

option SCALE: Scale is set to 1e-06 for instance and model parameters
Doing analysis at TEMP = 24.761068 and TNOM = 27.000000

Using KLU as Direct Linear Solver
 Reference value :  7.62140e-09
 Reference value :  3.62195e-08
 Reference value :  6.56045e-08
 Reference value :  9.38645e-08
 Reference value :  1.22287e-07
 Reference value :  1.50387e-07
 Reference value :  1.77067e-07
 Reference value :  2.05990e-07
 Reference value :  2.33940e-07
 Reference value :  2.63617e-07
 Reference value :  2.92747e-07
 Reference value :  3.20717e-07
No. of Data Rows : 68030

  Measurements for Transient Analysis

tphl                =  5.90366e-10 targ=  2.53364e-08 trig=  2.47460e-08
tplh                =  1.08279e-09 targ=  9.73208e-08 trig=  9.62380e-08
i_vdd_avg           =  -2.25269e-06 from=  1.00000e-08 to=  3.30002e-07
power_avg_uw        =  4.45220e+00


Total analysis time (seconds) = 3.01289

Total elapsed time (seconds) = 3.193 

Total DRAM available = 16384.000 MB.
DRAM currently available =   99.500 MB.
Maximum ngspice program size =   27.453 MB.
Current ngspice program size =   27.453 MB.

