
Note: Compatibility modes selected: hs a


Circuit: SKY130 library cell mux2_4 A0_to_X__A1=0,S=0

option SCALE: Scale is set to 1e-06 for instance and model parameters
Doing analysis at TEMP = 43.615611 and TNOM = 27.000000

Using KLU as Direct Linear Solver
 Reference value :  1.02714e-08
 Reference value :  4.57830e-08
 Reference value :  8.27780e-08
 Reference value :  1.18193e-07
 Reference value :  1.54248e-07
 Reference value :  1.90223e-07
 Reference value :  2.27458e-07
 Reference value :  2.64348e-07
 Reference value :  3.00723e-07
 Reference value :  3.34988e-07
No. of Data Rows : 68032

  Measurements for Transient Analysis

tplh                =  1.23096e-10 targ=  2.49258e-08 trig=  2.48027e-08
tphl                =  3.99274e-10 targ=  9.68075e-08 trig=  9.64082e-08
i_vdd_avg           =  -5.78839e-07 from=  1.00000e-08 to=  3.30003e-07
power_avg_uw        =  1.12501e+00


Total analysis time (seconds) = 2.38931

Total elapsed time (seconds) = 2.567 

Total DRAM available = 16384.000 MB.
DRAM currently available =  134.594 MB.
Maximum ngspice program size =   25.953 MB.
Current ngspice program size =   25.953 MB.

