
Note: Compatibility modes selected: hs a


Circuit: SKY130 library cell xor2_1 A_to_X__B=0

option SCALE: Scale is set to 1e-06 for instance and model parameters
Doing analysis at TEMP = 75.707983 and TNOM = 27.000000

Using KLU as Direct Linear Solver
 Reference value :  2.10464e-08
 Reference value :  9.25512e-08
 Reference value :  1.63110e-07
 Reference value :  2.29936e-07
 Reference value :  3.01465e-07
No. of Data Rows : 68034

  Measurements for Transient Analysis

tplh                =  9.85684e-10 targ=  2.54801e-08 trig=  2.44944e-08
tphl                =  5.06167e-10 targ=  9.59893e-08 trig=  9.54831e-08
i_vdd_avg           =  -6.47209e-07 from=  1.00000e-08 to=  3.30005e-07
power_avg_uw        =  1.22287e+00


Total analysis time (seconds) = 1.25107

Total elapsed time (seconds) = 1.412 

Total DRAM available = 16384.000 MB.
DRAM currently available =  118.406 MB.
Maximum ngspice program size =   26.688 MB.
Current ngspice program size =   26.688 MB.

