
Note: Compatibility modes selected: hs a


Circuit: SKY130 library cell aoi21_1 A1_to_Y__A2=1,B1=0

option SCALE: Scale is set to 1e-06 for instance and model parameters
Doing analysis at TEMP = -10.734580 and TNOM = 27.000000

Using KLU as Direct Linear Solver
 Reference value :  3.38975e-08
 Reference value :  1.36961e-07
 Reference value :  2.38472e-07
 Reference value :  3.38191e-07
No. of Data Rows : 68032

  Measurements for Transient Analysis

tphl                =  9.60243e-10 targ=  3.04998e-08 trig=  2.95396e-08
tplh                =  3.18470e-09 targ=  1.13803e-07 trig=  1.10619e-07
i_vdd_avg           =  -4.14863e-07 from=  1.00000e-08 to=  3.30001e-07
power_avg_uw        =  7.09020e-01


Total analysis time (seconds) = 0.856907

Total elapsed time (seconds) = 1.067 

Total DRAM available = 16384.000 MB.
DRAM currently available =  147.469 MB.
Maximum ngspice program size =   26.031 MB.
Current ngspice program size =   26.031 MB.

