
Note: Compatibility modes selected: hs a


Circuit: SKY130 library cell oai21_1 A1_to_Y__A2=0,B1=1

option SCALE: Scale is set to 1e-06 for instance and model parameters
Doing analysis at TEMP = 119.109100 and TNOM = 27.000000

Using KLU as Direct Linear Solver
 Reference value :  2.79447e-08
 Reference value :  1.28767e-07
 Reference value :  2.27640e-07
 Reference value :  3.25617e-07
No. of Data Rows : 68030

  Measurements for Transient Analysis

tphl                =  7.69133e-10 targ=  2.51153e-08 trig=  2.43461e-08
tplh                =  1.64552e-09 targ=  9.66839e-08 trig=  9.50384e-08
i_vdd_avg           =  -1.89250e-06 from=  1.00000e-08 to=  3.30002e-07
power_avg_uw        =  3.39203e+00


Total analysis time (seconds) = 0.867991

Total elapsed time (seconds) = 1.033 

Total DRAM available = 16384.000 MB.
DRAM currently available =  142.609 MB.
Maximum ngspice program size =   26.734 MB.
Current ngspice program size =   26.734 MB.

