
Note: Compatibility modes selected: hs a


Circuit: SKY130 library cell nor2_4 A_to_Y__B=0

option SCALE: Scale is set to 1e-06 for instance and model parameters
Doing analysis at TEMP = 36.264834 and TNOM = 27.000000

Using KLU as Direct Linear Solver
 Reference value :  1.50114e-08
 Reference value :  5.80296e-08
 Reference value :  1.01855e-07
 Reference value :  1.44307e-07
 Reference value :  1.87273e-07
 Reference value :  2.30415e-07
 Reference value :  2.71892e-07
 Reference value :  3.14987e-07
No. of Data Rows : 68030

  Measurements for Transient Analysis

tphl                =  1.52799e-10 targ=  2.66888e-08 trig=  2.65360e-08
tplh                =  9.72075e-10 targ=  1.02580e-07 trig=  1.01608e-07
i_vdd_avg           =  -6.74946e-07 from=  1.00000e-08 to=  3.30002e-07
power_avg_uw        =  1.21041e+00


Total analysis time (seconds) = 2.0092

Total elapsed time (seconds) = 2.167 

Total DRAM available = 16384.000 MB.
DRAM currently available =  135.641 MB.
Maximum ngspice program size =   26.938 MB.
Current ngspice program size =   26.938 MB.

