
Note: Compatibility modes selected: hs a


Circuit: SKY130 library cell inv_1 A_to_Y

option SCALE: Scale is set to 1e-06 for instance and model parameters
Doing analysis at TEMP = 109.630310 and TNOM = 27.000000

Using KLU as Direct Linear Solver
 Reference value :  1.13059e-07
No. of Data Rows : 68034

  Measurements for Transient Analysis

tphl                =  9.75682e-10 targ=  2.59049e-08 trig=  2.49292e-08
tplh                =  1.52376e-09 targ=  9.83115e-08 trig=  9.67877e-08
i_vdd_avg           =  -2.35505e-06 from=  1.00000e-08 to=  3.30004e-07
power_avg_uw        =  4.50442e+00


Total analysis time (seconds) = 0.316435

Total elapsed time (seconds) = 0.463 

Total DRAM available = 16384.000 MB.
DRAM currently available =  203.391 MB.
Maximum ngspice program size =   24.859 MB.
Current ngspice program size =   24.859 MB.

