
Note: Compatibility modes selected: hs a


Circuit: SKY130 library cell nand3_4 A_to_Y__B=1,C=1

option SCALE: Scale is set to 1e-06 for instance and model parameters
Doing analysis at TEMP = 21.219122 and TNOM = 27.000000

Using KLU as Direct Linear Solver
 Reference value :  6.93640e-09
 Reference value :  3.44003e-08
 Reference value :  6.18853e-08
 Reference value :  9.07303e-08
 Reference value :  1.19643e-07
 Reference value :  1.46333e-07
 Reference value :  1.74063e-07
 Reference value :  2.01825e-07
 Reference value :  2.30660e-07
 Reference value :  2.57370e-07
 Reference value :  2.85513e-07
 Reference value :  3.13698e-07
No. of Data Rows : 68034

  Measurements for Transient Analysis

tphl                =  1.02608e-09 targ=  2.79700e-08 trig=  2.69439e-08
tplh                =  1.81005e-09 targ=  1.04642e-07 trig=  1.02832e-07
i_vdd_avg           =  -1.90343e-06 from=  1.00000e-08 to=  3.30003e-07
power_avg_uw        =  3.24349e+00


Total analysis time (seconds) = 3.09025

Total elapsed time (seconds) = 3.263 

Total DRAM available = 16384.000 MB.
DRAM currently available =  174.391 MB.
Maximum ngspice program size =   26.031 MB.
Current ngspice program size =   26.031 MB.

