
Note: Compatibility modes selected: hs a


Circuit: SKY130 library cell mux2_1 A0_to_X__A1=0,S=0

option SCALE: Scale is set to 1e-06 for instance and model parameters
Doing analysis at TEMP = 112.515600 and TNOM = 27.000000

Using KLU as Direct Linear Solver
 Reference value :  1.15314e-08
 Reference value :  6.34200e-08
 Reference value :  1.08450e-07
 Reference value :  1.58252e-07
 Reference value :  2.07425e-07
 Reference value :  2.57485e-07
 Reference value :  3.06052e-07
No. of Data Rows : 68030

  Measurements for Transient Analysis

tplh                =  3.73030e-10 targ=  2.83968e-08 trig=  2.80237e-08
tphl                =  1.35015e-09 targ=  1.07421e-07 trig=  1.06071e-07
i_vdd_avg           =  -1.51343e-06 from=  1.00000e-08 to=  3.30002e-07
power_avg_uw        =  2.69814e+00


Total analysis time (seconds) = 1.93721

Total elapsed time (seconds) = 2.121 

Total DRAM available = 16384.000 MB.
DRAM currently available =  129.203 MB.
Maximum ngspice program size =   29.531 MB.
Current ngspice program size =   29.531 MB.

