
Note: Compatibility modes selected: hs a


Circuit: SKY130 library cell nand3_4 A_to_Y__B=1,C=1

option SCALE: Scale is set to 1e-06 for instance and model parameters
Doing analysis at TEMP = 39.061833 and TNOM = 27.000000

Using KLU as Direct Linear Solver
 Reference value :  6.42640e-09
 Reference value :  3.22514e-08
 Reference value :  6.05364e-08
 Reference value :  8.89264e-08
 Reference value :  1.17790e-07
 Reference value :  1.46280e-07
 Reference value :  1.74570e-07
 Reference value :  2.01461e-07
 Reference value :  2.29041e-07
 Reference value :  2.56471e-07
 Reference value :  2.84200e-07
 Reference value :  3.11955e-07
No. of Data Rows : 68032

  Measurements for Transient Analysis

tphl                =  4.61177e-10 targ=  2.59331e-08 trig=  2.54719e-08
tplh                =  8.82809e-10 targ=  9.92986e-08 trig=  9.84158e-08
i_vdd_avg           =  -2.34608e-06 from=  1.00000e-08 to=  3.30000e-07
power_avg_uw        =  4.23707e+00


Total analysis time (seconds) = 3.13183

Total elapsed time (seconds) = 3.325 

Total DRAM available = 16384.000 MB.
DRAM currently available =  143.219 MB.
Maximum ngspice program size =   30.344 MB.
Current ngspice program size =   30.344 MB.

