
Note: Compatibility modes selected: hs a


Circuit: SKY130 library cell mux2_1 A0_to_X__A1=0,S=0

option SCALE: Scale is set to 1e-06 for instance and model parameters
Doing analysis at TEMP = 28.990374 and TNOM = 27.000000

Using KLU as Direct Linear Solver
 Reference value :  1.19764e-08
 Reference value :  6.57615e-08
 Reference value :  1.20576e-07
 Reference value :  1.76351e-07
 Reference value :  2.26742e-07
 Reference value :  2.76596e-07
 Reference value :  3.28651e-07
No. of Data Rows : 68032

  Measurements for Transient Analysis

tplh                =  6.27389e-10 targ=  2.70869e-08 trig=  2.64595e-08
tphl                =  1.22931e-09 targ=  1.02608e-07 trig=  1.01379e-07
i_vdd_avg           =  -6.39040e-07 from=  1.00000e-08 to=  3.30001e-07
power_avg_uw        =  1.10273e+00


Total analysis time (seconds) = 1.68121

Total elapsed time (seconds) = 1.852 

Total DRAM available = 16384.000 MB.
DRAM currently available =  168.500 MB.
Maximum ngspice program size =   28.703 MB.
Current ngspice program size =   28.703 MB.

