
Note: Compatibility modes selected: hs a


Circuit: SKY130 library cell nor2_1 A_to_Y__B=0

option SCALE: Scale is set to 1e-06 for instance and model parameters
Doing analysis at TEMP = 75.855142 and TNOM = 27.000000

Using KLU as Direct Linear Solver
 Reference value :  5.16185e-08
 Reference value :  2.04044e-07
No. of Data Rows : 68032

  Measurements for Transient Analysis

tphl                =  1.34682e-09 targ=  2.88323e-08 trig=  2.74855e-08
tplh                =  3.18898e-09 targ=  1.07646e-07 trig=  1.04457e-07
i_vdd_avg           =  -2.14868e-06 from=  1.00000e-08 to=  3.30005e-07
power_avg_uw        =  4.21751e+00


Total analysis time (seconds) = 0.572406

Total elapsed time (seconds) = 0.731 

Total DRAM available = 16384.000 MB.
DRAM currently available =  148.328 MB.
Maximum ngspice program size =   26.797 MB.
Current ngspice program size =   26.797 MB.

