
Note: Compatibility modes selected: hs a


Circuit: SKY130 library cell xor2_1 A_to_X__B=0

option SCALE: Scale is set to 1e-06 for instance and model parameters
Doing analysis at TEMP = 34.599892 and TNOM = 27.000000

Using KLU as Direct Linear Solver
 Reference value :  2.09564e-08
 Reference value :  9.02770e-08
 Reference value :  1.58897e-07
 Reference value :  2.26947e-07
 Reference value :  2.94007e-07
No. of Data Rows : 68032

  Measurements for Transient Analysis

tplh                =  3.90435e-10 targ=  2.94877e-08 trig=  2.90973e-08
tphl                =  1.34002e-09 targ=  1.10632e-07 trig=  1.09292e-07
i_vdd_avg           =  -4.89624e-07 from=  1.00000e-08 to=  3.30002e-07
power_avg_uw        =  8.49630e-01


Total analysis time (seconds) = 1.27892

Total elapsed time (seconds) = 1.448 

Total DRAM available = 16384.000 MB.
DRAM currently available =  118.406 MB.
Maximum ngspice program size =   25.344 MB.
Current ngspice program size =   25.344 MB.

