
Note: Compatibility modes selected: hs a


Circuit: SKY130 library cell nand3_1 A_to_Y__B=1,C=1

option SCALE: Scale is set to 1e-06 for instance and model parameters
Doing analysis at TEMP = -26.866871 and TNOM = 27.000000

Using KLU as Direct Linear Solver
 Reference value :  3.15273e-08
 Reference value :  1.25842e-07
 Reference value :  2.23012e-07
 Reference value :  3.27822e-07
No. of Data Rows : 68032

  Measurements for Transient Analysis

tphl                =  1.71165e-09 targ=  2.73541e-08 trig=  2.56424e-08
tplh                =  2.38712e-09 targ=  1.01314e-07 trig=  9.89272e-08
i_vdd_avg           =  -2.01124e-06 from=  1.00000e-08 to=  3.30002e-07
power_avg_uw        =  3.54924e+00


Total analysis time (seconds) = 0.888196

Total elapsed time (seconds) = 1.050 

Total DRAM available = 16384.000 MB.
DRAM currently available =  139.750 MB.
Maximum ngspice program size =   25.562 MB.
Current ngspice program size =   25.562 MB.

