
Note: Compatibility modes selected: hs a


Circuit: SKY130 library cell mux2_4 A0_to_X__A1=0,S=0

option SCALE: Scale is set to 1e-06 for instance and model parameters
Doing analysis at TEMP = 66.346096 and TNOM = 27.000000

Using KLU as Direct Linear Solver
 Reference value :  9.70640e-09
 Reference value :  4.68324e-08
 Reference value :  8.28874e-08
 Reference value :  1.18822e-07
 Reference value :  1.55217e-07
 Reference value :  1.91097e-07
 Reference value :  2.26287e-07
 Reference value :  2.61652e-07
 Reference value :  2.93847e-07
 Reference value :  3.29657e-07
No. of Data Rows : 68032

  Measurements for Transient Analysis

tplh                =  2.83833e-10 targ=  2.55963e-08 trig=  2.53124e-08
tphl                =  6.30217e-10 targ=  9.85675e-08 trig=  9.79373e-08
i_vdd_avg           =  -7.16499e-07 from=  1.00000e-08 to=  3.30002e-07
power_avg_uw        =  1.40152e+00


Total analysis time (seconds) = 2.46809

Total elapsed time (seconds) = 2.655 

Total DRAM available = 16384.000 MB.
DRAM currently available =  145.984 MB.
Maximum ngspice program size =   25.938 MB.
Current ngspice program size =   25.938 MB.

