
Note: Compatibility modes selected: hs a


Circuit: SKY130 library cell xor2_4 A_to_X__B=0

option SCALE: Scale is set to 1e-06 for instance and model parameters
Doing analysis at TEMP = 99.468035 and TNOM = 27.000000

Using KLU as Direct Linear Solver
 Reference value :  3.63140e-09
 Reference value :  2.09664e-08
 Reference value :  3.76422e-08
 Reference value :  5.47772e-08
 Reference value :  7.18822e-08
 Reference value :  8.98272e-08
 Reference value :  1.07487e-07
 Reference value :  1.24322e-07
 Reference value :  1.40932e-07
 Reference value :  1.58662e-07
 Reference value :  1.76312e-07
 Reference value :  1.93983e-07
 Reference value :  2.11197e-07
 Reference value :  2.28492e-07
 Reference value :  2.45477e-07
 Reference value :  2.62357e-07
 Reference value :  2.79027e-07
 Reference value :  2.96467e-07
 Reference value :  3.13402e-07
 Reference value :  3.30342e-07
No. of Data Rows : 68032

  Measurements for Transient Analysis

tplh                =  -5.62568e-10 targ=  2.88973e-08 trig=  2.94598e-08
tphl                =  1.01951e-09 targ=  1.11399e-07 trig=  1.10380e-07
i_vdd_avg           =  -3.84485e-06 from=  1.00000e-08 to=  3.30002e-07
power_avg_uw        =  7.11618e+00


Total analysis time (seconds) = 5.01668

Total elapsed time (seconds) = 5.199 

Total DRAM available = 16384.000 MB.
DRAM currently available =  130.578 MB.
Maximum ngspice program size =   28.078 MB.
Current ngspice program size =   28.078 MB.

