
Note: Compatibility modes selected: hs a


Circuit: SKY130 library cell xor2_1 A_to_X__B=0

option SCALE: Scale is set to 1e-06 for instance and model parameters
Doing analysis at TEMP = 3.364027 and TNOM = 27.000000

Using KLU as Direct Linear Solver
 Reference value :  2.46725e-08
 Reference value :  9.17961e-08
 Reference value :  1.63615e-07
 Reference value :  2.30351e-07
 Reference value :  2.97590e-07
No. of Data Rows : 68034

  Measurements for Transient Analysis

tplh                =  -1.77566e-11 targ=  2.98691e-08 trig=  2.98868e-08
tphl                =  1.49153e-09 targ=  1.13152e-07 trig=  1.11660e-07
i_vdd_avg           =  -2.50118e-07 from=  1.00000e-08 to=  3.30005e-07
power_avg_uw        =  4.40395e-01


Total analysis time (seconds) = 1.24702

Total elapsed time (seconds) = 1.411 

Total DRAM available = 16384.000 MB.
DRAM currently available =  130.062 MB.
Maximum ngspice program size =   27.688 MB.
Current ngspice program size =   27.688 MB.

