
Note: Compatibility modes selected: hs a


Circuit: SKY130 library cell xor2_4 A_to_X__B=0

option SCALE: Scale is set to 1e-06 for instance and model parameters
Doing analysis at TEMP = -38.913925 and TNOM = 27.000000

Using KLU as Direct Linear Solver
 Reference value :  4.85140e-09
 Reference value :  2.23714e-08
 Reference value :  3.96946e-08
 Reference value :  5.76846e-08
 Reference value :  7.47846e-08
 Reference value :  9.19446e-08
 Reference value :  1.09432e-07
 Reference value :  1.27052e-07
 Reference value :  1.43677e-07
 Reference value :  1.60707e-07
 Reference value :  1.77247e-07
 Reference value :  1.93790e-07
 Reference value :  2.09500e-07
 Reference value :  2.24670e-07
 Reference value :  2.42210e-07
 Reference value :  2.59545e-07
 Reference value :  2.76832e-07
 Reference value :  2.94052e-07
 Reference value :  3.11147e-07
 Reference value :  3.28507e-07
No. of Data Rows : 68030

  Measurements for Transient Analysis

tplh                =  1.34492e-09 targ=  2.87885e-08 trig=  2.74436e-08
tphl                =  2.08301e-09 targ=  1.06414e-07 trig=  1.04331e-07
i_vdd_avg           =  -9.35790e-07 from=  1.00000e-08 to=  3.30002e-07
power_avg_uw        =  1.53676e+00


Total analysis time (seconds) = 5.04891

Total elapsed time (seconds) = 5.223 

Total DRAM available = 16384.000 MB.
DRAM currently available =  133.500 MB.
Maximum ngspice program size =   26.656 MB.
Current ngspice program size =   26.656 MB.

