
Note: Compatibility modes selected: hs a


Circuit: SKY130 library cell nor2_4 A_to_Y__B=0

option SCALE: Scale is set to 1e-06 for instance and model parameters
Doing analysis at TEMP = 121.562070 and TNOM = 27.000000

Using KLU as Direct Linear Solver
 Reference value :  1.21614e-08
 Reference value :  5.84494e-08
 Reference value :  1.01504e-07
 Reference value :  1.46636e-07
 Reference value :  1.92834e-07
 Reference value :  2.39059e-07
 Reference value :  2.83841e-07
 Reference value :  3.27791e-07
No. of Data Rows : 68030

  Measurements for Transient Analysis

tphl                =  9.76239e-10 targ=  2.93347e-08 trig=  2.83584e-08
tplh                =  1.92485e-09 targ=  1.09000e-07 trig=  1.07075e-07
i_vdd_avg           =  -2.39468e-06 from=  1.00000e-08 to=  3.30001e-07
power_avg_uw        =  4.66602e+00


Total analysis time (seconds) = 1.91469

Total elapsed time (seconds) = 2.092 

Total DRAM available = 16384.000 MB.
DRAM currently available =  147.672 MB.
Maximum ngspice program size =   27.438 MB.
Current ngspice program size =   27.438 MB.

