
Note: Compatibility modes selected: hs a


Circuit: SKY130 library cell oai21_4 A1_to_Y__A2=0,B1=1

option SCALE: Scale is set to 1e-06 for instance and model parameters
Doing analysis at TEMP = 77.776005 and TNOM = 27.000000

Using KLU as Direct Linear Solver
 Reference value :  6.60140e-09
 Reference value :  3.45525e-08
 Reference value :  6.25706e-08
 Reference value :  8.98756e-08
 Reference value :  1.16766e-07
 Reference value :  1.46029e-07
 Reference value :  1.75149e-07
 Reference value :  2.04991e-07
 Reference value :  2.31976e-07
 Reference value :  2.58861e-07
 Reference value :  2.85894e-07
 Reference value :  3.14209e-07
No. of Data Rows : 68034

  Measurements for Transient Analysis

tphl                =  -3.34007e-10 targ=  2.94225e-08 trig=  2.97565e-08
tplh                =  1.03146e-09 targ=  1.12301e-07 trig=  1.11270e-07
i_vdd_avg           =  -1.33389e-06 from=  1.00000e-08 to=  3.30004e-07
power_avg_uw        =  2.53755e+00


Total analysis time (seconds) = 3.1511

Total elapsed time (seconds) = 3.378 

Total DRAM available = 16384.000 MB.
DRAM currently available =  141.922 MB.
Maximum ngspice program size =   25.188 MB.
Current ngspice program size =   25.188 MB.

