
Note: Compatibility modes selected: hs a


Circuit: SKY130 library cell aoi21_1 A1_to_Y__A2=1,B1=0

option SCALE: Scale is set to 1e-06 for instance and model parameters
Doing analysis at TEMP = 62.433372 and TNOM = 27.000000

Using KLU as Direct Linear Solver
 Reference value :  3.90784e-08
 Reference value :  1.36159e-07
 Reference value :  2.31083e-07
 Reference value :  3.23684e-07
No. of Data Rows : 68032

  Measurements for Transient Analysis

tphl                =  8.50207e-10 targ=  2.50606e-08 trig=  2.42104e-08
tplh                =  2.05110e-09 targ=  9.66824e-08 trig=  9.46313e-08
i_vdd_avg           =  -2.15180e-06 from=  1.00000e-08 to=  3.30004e-07
power_avg_uw        =  4.19615e+00


Total analysis time (seconds) = 0.950388

Total elapsed time (seconds) = 1.102 

Total DRAM available = 16384.000 MB.
DRAM currently available =  129.766 MB.
Maximum ngspice program size =   25.156 MB.
Current ngspice program size =   25.156 MB.

