
Note: Compatibility modes selected: hs a


Circuit: SKY130 library cell inv_4 A_to_Y

option SCALE: Scale is set to 1e-06 for instance and model parameters
Doing analysis at TEMP = 105.031380 and TNOM = 27.000000

Using KLU as Direct Linear Solver
 Reference value :  4.08209e-08
 Reference value :  1.38639e-07
 Reference value :  2.29066e-07
 Reference value :  3.12284e-07
No. of Data Rows : 68034

  Measurements for Transient Analysis

tphl                =  1.17861e-10 targ=  2.54945e-08 trig=  2.53767e-08
tplh                =  5.48670e-10 targ=  9.86787e-08 trig=  9.81301e-08
i_vdd_avg           =  -1.99084e-06 from=  1.00000e-08 to=  3.30004e-07
power_avg_uw        =  3.75388e+00


Total analysis time (seconds) = 0.929654

Total elapsed time (seconds) = 1.075 

Total DRAM available = 16384.000 MB.
DRAM currently available =  120.656 MB.
Maximum ngspice program size =   25.469 MB.
Current ngspice program size =   25.469 MB.

