
Note: Compatibility modes selected: hs a


Circuit: SKY130 library cell nand3_1 A_to_Y__B=1,C=1

option SCALE: Scale is set to 1e-06 for instance and model parameters
Doing analysis at TEMP = 68.704581 and TNOM = 27.000000

Using KLU as Direct Linear Solver
 Reference value :  3.50925e-08
 Reference value :  1.26595e-07
 Reference value :  2.24466e-07
 Reference value :  3.29320e-07
No. of Data Rows : 68032

  Measurements for Transient Analysis

tphl                =  1.86853e-09 targ=  3.17429e-08 trig=  2.98744e-08
tplh                =  2.93985e-09 targ=  1.14563e-07 trig=  1.11623e-07
i_vdd_avg           =  -1.23920e-06 from=  1.00000e-08 to=  3.30000e-07
power_avg_uw        =  2.27488e+00


Total analysis time (seconds) = 0.91692

Total elapsed time (seconds) = 1.078 

Total DRAM available = 16384.000 MB.
DRAM currently available =  236.094 MB.
Maximum ngspice program size =   24.344 MB.
Current ngspice program size =   24.344 MB.

