
Note: Compatibility modes selected: hs a


Circuit: SKY130 library cell oai21_4 A1_to_Y__A2=0,B1=1

option SCALE: Scale is set to 1e-06 for instance and model parameters
Doing analysis at TEMP = 96.489977 and TNOM = 27.000000

Using KLU as Direct Linear Solver
 Reference value :  7.63640e-09
 Reference value :  3.55701e-08
 Reference value :  6.21151e-08
 Reference value :  8.86001e-08
 Reference value :  1.17008e-07
 Reference value :  1.43858e-07
 Reference value :  1.71688e-07
 Reference value :  2.00400e-07
 Reference value :  2.28595e-07
 Reference value :  2.55225e-07
 Reference value :  2.83198e-07
 Reference value :  3.12988e-07
No. of Data Rows : 68034

  Measurements for Transient Analysis

tphl                =  4.11299e-10 targ=  2.58726e-08 trig=  2.54613e-08
tplh                =  9.85854e-10 targ=  9.93698e-08 trig=  9.83839e-08
i_vdd_avg           =  -1.97541e-06 from=  1.00000e-08 to=  3.30003e-07
power_avg_uw        =  3.32943e+00


Total analysis time (seconds) = 3.08761

Total elapsed time (seconds) = 3.259 

Total DRAM available = 16384.000 MB.
DRAM currently available =   99.406 MB.
Maximum ngspice program size =   27.172 MB.
Current ngspice program size =   27.172 MB.

