
Note: Compatibility modes selected: hs a


Circuit: SKY130 library cell nand3_1 A_to_Y__B=1,C=1

option SCALE: Scale is set to 1e-06 for instance and model parameters
Doing analysis at TEMP = 43.466272 and TNOM = 27.000000

Using KLU as Direct Linear Solver
 Reference value :  2.93781e-08
 Reference value :  1.28249e-07
 Reference value :  2.30148e-07
 Reference value :  3.34044e-07
No. of Data Rows : 68032

  Measurements for Transient Analysis

tphl                =  2.08202e-09 targ=  2.69473e-08 trig=  2.48653e-08
tplh                =  2.02259e-09 targ=  9.86186e-08 trig=  9.65960e-08
i_vdd_avg           =  -2.39227e-06 from=  1.00000e-08 to=  3.30004e-07
power_avg_uw        =  4.66329e+00


Total analysis time (seconds) = 0.864685

Total elapsed time (seconds) = 1.031 

Total DRAM available = 16384.000 MB.
DRAM currently available =  179.109 MB.
Maximum ngspice program size =   26.281 MB.
Current ngspice program size =   26.281 MB.

