
Note: Compatibility modes selected: hs a


Circuit: SKY130 library cell xor2_1 A_to_X__B=0

option SCALE: Scale is set to 1e-06 for instance and model parameters
Doing analysis at TEMP = -23.310733 and TNOM = 27.000000

Using KLU as Direct Linear Solver
 Reference value :  2.44225e-08
 Reference value :  9.06520e-08
 Reference value :  1.55872e-07
 Reference value :  2.19772e-07
 Reference value :  2.81312e-07
No. of Data Rows : 68032

  Measurements for Transient Analysis

tplh                =  7.16374e-10 targ=  2.89961e-08 trig=  2.82798e-08
tphl                =  1.73889e-09 targ=  1.08578e-07 trig=  1.06839e-07
i_vdd_avg           =  -1.94976e-07 from=  1.00000e-08 to=  3.30002e-07
power_avg_uw        =  3.49941e-01


Total analysis time (seconds) = 1.33742

Total elapsed time (seconds) = 1.495 

Total DRAM available = 16384.000 MB.
DRAM currently available =  107.469 MB.
Maximum ngspice program size =   24.484 MB.
Current ngspice program size =   24.484 MB.

