
Note: Compatibility modes selected: hs a


Circuit: SKY130 library cell nand2_4 A_to_Y__B=1

option SCALE: Scale is set to 1e-06 for instance and model parameters
Doing analysis at TEMP = -11.379892 and TNOM = 27.000000

Using KLU as Direct Linear Solver
 Reference value :  1.95414e-08
 Reference value :  6.42476e-08
 Reference value :  1.08058e-07
 Reference value :  1.54938e-07
 Reference value :  2.00858e-07
 Reference value :  2.50768e-07
 Reference value :  2.95503e-07
No. of Data Rows : 68032

  Measurements for Transient Analysis

tphl                =  1.11083e-09 targ=  2.88884e-08 trig=  2.77775e-08
tplh                =  2.19907e-09 targ=  1.07532e-07 trig=  1.05333e-07
i_vdd_avg           =  -1.30784e-06 from=  1.00000e-08 to=  3.30003e-07
power_avg_uw        =  2.38000e+00


Total analysis time (seconds) = 1.85959

Total elapsed time (seconds) = 2.020 

Total DRAM available = 16384.000 MB.
DRAM currently available =  128.859 MB.
Maximum ngspice program size =   28.031 MB.
Current ngspice program size =   28.031 MB.

