
Note: Compatibility modes selected: hs a


Circuit: SKY130 library cell aoi21_1 A1_to_Y__A2=1,B1=0

option SCALE: Scale is set to 1e-06 for instance and model parameters
Doing analysis at TEMP = 26.817089 and TNOM = 27.000000

Using KLU as Direct Linear Solver
 Reference value :  3.03707e-08
 Reference value :  1.27909e-07
 Reference value :  2.26856e-07
 Reference value :  3.27834e-07
No. of Data Rows : 68034

  Measurements for Transient Analysis

tphl                =  1.58854e-09 targ=  2.77651e-08 trig=  2.61766e-08
tplh                =  2.85752e-09 targ=  1.03387e-07 trig=  1.00530e-07
i_vdd_avg           =  -1.15241e-06 from=  1.00000e-08 to=  3.30004e-07
power_avg_uw        =  2.15967e+00


Total analysis time (seconds) = 0.875845

Total elapsed time (seconds) = 1.041 

Total DRAM available = 16384.000 MB.
DRAM currently available =  130.516 MB.
Maximum ngspice program size =   26.844 MB.
Current ngspice program size =   26.844 MB.

