
Note: Compatibility modes selected: hs a


Circuit: SKY130 library cell mux2_4 A0_to_X__A1=0,S=0

option SCALE: Scale is set to 1e-06 for instance and model parameters
Doing analysis at TEMP = 101.229720 and TNOM = 27.000000

Using KLU as Direct Linear Solver
 Reference value :  1.00314e-08
 Reference value :  4.53589e-08
 Reference value :  8.14739e-08
 Reference value :  1.19080e-07
 Reference value :  1.55525e-07
 Reference value :  1.91298e-07
 Reference value :  2.28144e-07
 Reference value :  2.65274e-07
 Reference value :  2.99795e-07
 Reference value :  3.34670e-07
No. of Data Rows : 68030

  Measurements for Transient Analysis

tplh                =  1.43742e-09 targ=  2.94381e-08 trig=  2.80007e-08
tphl                =  1.95952e-09 targ=  1.07962e-07 trig=  1.06002e-07
i_vdd_avg           =  -2.01803e-06 from=  1.00000e-08 to=  3.30000e-07
power_avg_uw        =  3.45048e+00


Total analysis time (seconds) = 2.41322

Total elapsed time (seconds) = 2.572 

Total DRAM available = 16384.000 MB.
DRAM currently available =  134.594 MB.
Maximum ngspice program size =   23.938 MB.
Current ngspice program size =   23.734 MB.

