
Note: Compatibility modes selected: hs a


Circuit: SKY130 library cell nand3_1 A_to_Y__B=1,C=1

option SCALE: Scale is set to 1e-06 for instance and model parameters
Doing analysis at TEMP = 81.722481 and TNOM = 27.000000

Using KLU as Direct Linear Solver
 Reference value :  2.41925e-08
 Reference value :  1.18390e-07
 Reference value :  2.23439e-07
 Reference value :  3.23670e-07
No. of Data Rows : 68030

  Measurements for Transient Analysis

tphl                =  9.84877e-10 targ=  3.01705e-08 trig=  2.91857e-08
tplh                =  2.08046e-09 targ=  1.11637e-07 trig=  1.09557e-07
i_vdd_avg           =  -1.82694e-06 from=  1.00000e-08 to=  3.30000e-07
power_avg_uw        =  3.53122e+00


Total analysis time (seconds) = 0.90697

Total elapsed time (seconds) = 1.068 

Total DRAM available = 16384.000 MB.
DRAM currently available =  152.938 MB.
Maximum ngspice program size =   22.719 MB.
Current ngspice program size =   22.719 MB.

