
Note: Compatibility modes selected: hs a


Circuit: SKY130 library cell nand2_1 A_to_Y__B=1

option SCALE: Scale is set to 1e-06 for instance and model parameters
Doing analysis at TEMP = 114.581010 and TNOM = 27.000000

Using KLU as Direct Linear Solver
 Reference value :  7.28730e-08
 Reference value :  2.36548e-07
No. of Data Rows : 68032

  Measurements for Transient Analysis

tphl                =  1.23664e-09 targ=  3.12094e-08 trig=  2.99728e-08
tplh                =  2.54410e-09 targ=  1.14462e-07 trig=  1.11918e-07
i_vdd_avg           =  -1.39062e-06 from=  1.00000e-08 to=  3.30004e-07
power_avg_uw        =  2.29318e+00


Total analysis time (seconds) = 0.519347

Total elapsed time (seconds) = 0.659 

Total DRAM available = 16384.000 MB.
DRAM currently available =  101.219 MB.
Maximum ngspice program size =   25.984 MB.
Current ngspice program size =   25.984 MB.

