
Note: Compatibility modes selected: hs a


Circuit: SKY130 library cell oai21_1 A1_to_Y__A2=0,B1=1

option SCALE: Scale is set to 1e-06 for instance and model parameters
Doing analysis at TEMP = 19.772535 and TNOM = 27.000000

Using KLU as Direct Linear Solver
 Reference value :  2.70275e-08
 Reference value :  1.24005e-07
 Reference value :  2.23201e-07
 Reference value :  3.21595e-07
No. of Data Rows : 68032

  Measurements for Transient Analysis

tphl                =  8.44730e-10 targ=  2.68867e-08 trig=  2.60420e-08
tplh                =  1.62674e-09 targ=  1.01753e-07 trig=  1.00126e-07
i_vdd_avg           =  -2.62643e-07 from=  1.00000e-08 to=  3.30000e-07
power_avg_uw        =  4.56566e-01


Total analysis time (seconds) = 0.898378

Total elapsed time (seconds) = 1.061 

Total DRAM available = 16384.000 MB.
DRAM currently available =  123.750 MB.
Maximum ngspice program size =   26.562 MB.
Current ngspice program size =   26.562 MB.

