
Note: Compatibility modes selected: hs a


Circuit: SKY130 library cell nand2_4 A_to_Y__B=1

option SCALE: Scale is set to 1e-06 for instance and model parameters
Doing analysis at TEMP = 74.611161 and TNOM = 27.000000

Using KLU as Direct Linear Solver
 Reference value :  1.66764e-08
 Reference value :  6.42082e-08
 Reference value :  1.08489e-07
 Reference value :  1.53784e-07
 Reference value :  2.00508e-07
 Reference value :  2.47413e-07
 Reference value :  2.95909e-07
No. of Data Rows : 68032

  Measurements for Transient Analysis

tphl                =  2.34578e-10 targ=  2.51024e-08 trig=  2.48678e-08
tplh                =  4.89159e-10 targ=  9.70927e-08 trig=  9.66035e-08
i_vdd_avg           =  -1.36494e-06 from=  1.00000e-08 to=  3.30004e-07
power_avg_uw        =  2.42159e+00


Total analysis time (seconds) = 1.85489

Total elapsed time (seconds) = 2.013 

Total DRAM available = 16384.000 MB.
DRAM currently available =   95.531 MB.
Maximum ngspice program size =   25.984 MB.
Current ngspice program size =   25.984 MB.

