
Note: Compatibility modes selected: hs a


Circuit: SKY130 library cell aoi21_1 A1_to_Y__A2=1,B1=0

option SCALE: Scale is set to 1e-06 for instance and model parameters
Doing analysis at TEMP = 104.129230 and TNOM = 27.000000

Using KLU as Direct Linear Solver
 Reference value :  3.19725e-08
 Reference value :  1.27128e-07
 Reference value :  2.30658e-07
 Reference value :  3.32433e-07
No. of Data Rows : 68032

  Measurements for Transient Analysis

tphl                =  1.67019e-09 targ=  2.76927e-08 trig=  2.60225e-08
tplh                =  2.51995e-09 targ=  1.02588e-07 trig=  1.00068e-07
i_vdd_avg           =  -1.46272e-06 from=  1.00000e-08 to=  3.30003e-07
power_avg_uw        =  2.89384e+00


Total analysis time (seconds) = 0.855069

Total elapsed time (seconds) = 1.021 

Total DRAM available = 16384.000 MB.
DRAM currently available =  151.562 MB.
Maximum ngspice program size =   27.172 MB.
Current ngspice program size =   27.172 MB.

