
Note: Compatibility modes selected: hs a


Circuit: SKY130 library cell inv_1 A_to_Y

option SCALE: Scale is set to 1e-06 for instance and model parameters
Doing analysis at TEMP = 118.613360 and TNOM = 27.000000

Using KLU as Direct Linear Solver
 Reference value :  1.18763e-07
No. of Data Rows : 68032

  Measurements for Transient Analysis

tphl                =  1.68747e-09 targ=  3.01276e-08 trig=  2.84401e-08
tplh                =  2.99620e-09 targ=  1.10317e-07 trig=  1.07320e-07
i_vdd_avg           =  -2.32953e-06 from=  1.00000e-08 to=  3.30003e-07
power_avg_uw        =  4.40858e+00


Total analysis time (seconds) = 0.319174

Total elapsed time (seconds) = 0.452 

Total DRAM available = 16384.000 MB.
DRAM currently available =  199.781 MB.
Maximum ngspice program size =   25.484 MB.
Current ngspice program size =   25.484 MB.

