
Note: Compatibility modes selected: hs a


Circuit: SKY130 library cell xor2_4 A_to_X__B=0

option SCALE: Scale is set to 1e-06 for instance and model parameters
Doing analysis at TEMP = -22.668168 and TNOM = 27.000000

Using KLU as Direct Linear Solver
 Reference value :  4.22140e-09
 Reference value :  2.17364e-08
 Reference value :  3.92583e-08
 Reference value :  5.61733e-08
 Reference value :  7.31833e-08
 Reference value :  9.11483e-08
 Reference value :  1.07819e-07
 Reference value :  1.25314e-07
 Reference value :  1.43074e-07
 Reference value :  1.60159e-07
 Reference value :  1.77869e-07
 Reference value :  1.94513e-07
 Reference value :  2.11418e-07
 Reference value :  2.28898e-07
 Reference value :  2.46748e-07
 Reference value :  2.63638e-07
 Reference value :  2.80919e-07
 Reference value :  2.97509e-07
 Reference value :  3.13309e-07
 Reference value :  3.31304e-07
No. of Data Rows : 68032

  Measurements for Transient Analysis

tplh                =  5.90455e-10 targ=  2.77934e-08 trig=  2.72029e-08
tphl                =  1.27141e-09 targ=  1.04880e-07 trig=  1.03609e-07
i_vdd_avg           =  -9.69003e-07 from=  1.00000e-08 to=  3.30004e-07
power_avg_uw        =  1.81513e+00


Total analysis time (seconds) = 5.1226

Total elapsed time (seconds) = 5.303 

Total DRAM available = 16384.000 MB.
DRAM currently available =  137.703 MB.
Maximum ngspice program size =   28.438 MB.
Current ngspice program size =   11.078 MB.

