
Note: Compatibility modes selected: hs a


Circuit: SKY130 library cell xor2_1 A_to_X__B=0

option SCALE: Scale is set to 1e-06 for instance and model parameters
Doing analysis at TEMP = 107.259110 and TNOM = 27.000000

Using KLU as Direct Linear Solver
 Reference value :  2.35264e-08
 Reference value :  9.35594e-08
 Reference value :  1.65636e-07
 Reference value :  2.31329e-07
 Reference value :  2.92756e-07
No. of Data Rows : 68030

  Measurements for Transient Analysis

tplh                =  3.07343e-09 targ=  2.89144e-08 trig=  2.58409e-08
tphl                =  1.34016e-09 targ=  1.00863e-07 trig=  9.95228e-08
i_vdd_avg           =  -1.39989e-06 from=  1.00000e-08 to=  3.30001e-07
power_avg_uw        =  2.34441e+00


Total analysis time (seconds) = 1.30259

Total elapsed time (seconds) = 1.460 

Total DRAM available = 16384.000 MB.
DRAM currently available =  128.406 MB.
Maximum ngspice program size =   25.016 MB.
Current ngspice program size =   25.016 MB.

