
Note: Compatibility modes selected: hs a


Circuit: SKY130 library cell inv_4 A_to_Y

option SCALE: Scale is set to 1e-06 for instance and model parameters
Doing analysis at TEMP = -9.609249 and TNOM = 27.000000

Using KLU as Direct Linear Solver
 Reference value :  4.11417e-08
 Reference value :  1.43286e-07
 Reference value :  2.33797e-07
 Reference value :  3.36016e-07
No. of Data Rows : 68032

  Measurements for Transient Analysis

tphl                =  9.13123e-11 targ=  2.41884e-08 trig=  2.40971e-08
tplh                =  1.80900e-10 targ=  9.44722e-08 trig=  9.42913e-08
i_vdd_avg           =  -6.05616e-07 from=  1.00000e-08 to=  3.30001e-07
power_avg_uw        =  1.01954e+00


Total analysis time (seconds) = 0.877622

Total elapsed time (seconds) = 1.032 

Total DRAM available = 16384.000 MB.
DRAM currently available =  104.578 MB.
Maximum ngspice program size =   26.578 MB.
Current ngspice program size =   26.578 MB.

