
Note: Compatibility modes selected: hs a


Circuit: SKY130 library cell oai21_1 A1_to_Y__A2=0,B1=1

option SCALE: Scale is set to 1e-06 for instance and model parameters
Doing analysis at TEMP = 68.902309 and TNOM = 27.000000

Using KLU as Direct Linear Solver
 Reference value :  3.21349e-08
 Reference value :  1.38222e-07
 Reference value :  2.34195e-07
 Reference value :  3.36317e-07
No. of Data Rows : 68030

  Measurements for Transient Analysis

tphl                =  5.50822e-10 targ=  2.58470e-08 trig=  2.52962e-08
tplh                =  1.25743e-09 targ=  9.91460e-08 trig=  9.78886e-08
i_vdd_avg           =  -9.11735e-07 from=  1.00000e-08 to=  3.30002e-07
power_avg_uw        =  1.64392e+00


Total analysis time (seconds) = 0.851073

Total elapsed time (seconds) = 1.011 

Total DRAM available = 16384.000 MB.
DRAM currently available =   78.281 MB.
Maximum ngspice program size =   24.766 MB.
Current ngspice program size =   24.766 MB.

