
Note: Compatibility modes selected: hs a


Circuit: SKY130 library cell aoi21_4 A1_to_Y__A2=1,B1=0

option SCALE: Scale is set to 1e-06 for instance and model parameters
Doing analysis at TEMP = 37.999422 and TNOM = 27.000000

Using KLU as Direct Linear Solver
 Reference value :  7.61640e-09
 Reference value :  3.40175e-08
 Reference value :  6.24492e-08
 Reference value :  8.95742e-08
 Reference value :  1.17456e-07
 Reference value :  1.45621e-07
 Reference value :  1.74546e-07
 Reference value :  2.03719e-07
 Reference value :  2.31629e-07
 Reference value :  2.60129e-07
 Reference value :  2.89121e-07
 Reference value :  3.17556e-07
No. of Data Rows : 68030

  Measurements for Transient Analysis

tphl                =  -5.70800e-10 targ=  2.90376e-08 trig=  2.96084e-08
tplh                =  1.31887e-09 targ=  1.12144e-07 trig=  1.10825e-07
i_vdd_avg           =  -2.07873e-06 from=  1.00000e-08 to=  3.30001e-07
power_avg_uw        =  3.82529e+00


Total analysis time (seconds) = 3.06561

Total elapsed time (seconds) = 3.248 

Total DRAM available = 16384.000 MB.
DRAM currently available =   88.469 MB.
Maximum ngspice program size =   28.469 MB.
Current ngspice program size =   28.469 MB.

