
Note: Compatibility modes selected: hs a


Circuit: SKY130 library cell nor2_4 A_to_Y__B=0

option SCALE: Scale is set to 1e-06 for instance and model parameters
Doing analysis at TEMP = 13.971614 and TNOM = 27.000000

Using KLU as Direct Linear Solver
 Reference value :  1.62864e-08
 Reference value :  6.09043e-08
 Reference value :  1.05921e-07
 Reference value :  1.50766e-07
 Reference value :  1.96844e-07
 Reference value :  2.39399e-07
 Reference value :  2.85291e-07
 Reference value :  3.26426e-07
No. of Data Rows : 68030

  Measurements for Transient Analysis

tphl                =  7.09013e-10 targ=  2.57549e-08 trig=  2.50459e-08
tplh                =  1.65344e-09 targ=  9.87911e-08 trig=  9.71376e-08
i_vdd_avg           =  -1.69943e-06 from=  1.00000e-08 to=  3.30001e-07
power_avg_uw        =  2.83871e+00


Total analysis time (seconds) = 1.96289

Total elapsed time (seconds) = 2.117 

Total DRAM available = 16384.000 MB.
DRAM currently available =  135.641 MB.
Maximum ngspice program size =   29.703 MB.
Current ngspice program size =   29.703 MB.

