
Note: Compatibility modes selected: hs a


Circuit: SKY130 library cell mux2_1 A0_to_X__A1=0,S=0

option SCALE: Scale is set to 1e-06 for instance and model parameters
Doing analysis at TEMP = 61.757820 and TNOM = 27.000000

Using KLU as Direct Linear Solver
 Reference value :  1.42414e-08
 Reference value :  6.18208e-08
 Reference value :  1.15359e-07
 Reference value :  1.70564e-07
 Reference value :  2.22586e-07
 Reference value :  2.77149e-07
 Reference value :  3.25429e-07
No. of Data Rows : 68034

  Measurements for Transient Analysis

tplh                =  7.55872e-10 targ=  2.86925e-08 trig=  2.79366e-08
tphl                =  1.47254e-09 targ=  1.07282e-07 trig=  1.05810e-07
i_vdd_avg           =  -1.45674e-06 from=  1.00000e-08 to=  3.30004e-07
power_avg_uw        =  2.36191e+00


Total analysis time (seconds) = 1.70617

Total elapsed time (seconds) = 1.896 

Total DRAM available = 16384.000 MB.
DRAM currently available =  163.234 MB.
Maximum ngspice program size =   28.234 MB.
Current ngspice program size =   28.234 MB.

