
Note: Compatibility modes selected: hs a


Circuit: SKY130 library cell mux2_1 A0_to_X__A1=0,S=0

option SCALE: Scale is set to 1e-06 for instance and model parameters
Doing analysis at TEMP = 81.462154 and TNOM = 27.000000

Using KLU as Direct Linear Solver
 Reference value :  1.19914e-08
 Reference value :  5.91310e-08
 Reference value :  1.05080e-07
 Reference value :  1.54330e-07
 Reference value :  2.02051e-07
 Reference value :  2.50291e-07
 Reference value :  2.98455e-07
No. of Data Rows : 68034

  Measurements for Transient Analysis

tplh                =  9.92451e-10 targ=  2.70242e-08 trig=  2.60318e-08
tphl                =  1.24087e-09 targ=  1.01336e-07 trig=  1.00095e-07
i_vdd_avg           =  -1.72462e-06 from=  1.00000e-08 to=  3.30005e-07
power_avg_uw        =  3.16801e+00


Total analysis time (seconds) = 1.88776

Total elapsed time (seconds) = 2.072 

Total DRAM available = 16384.000 MB.
DRAM currently available =  153.047 MB.
Maximum ngspice program size =   27.328 MB.
Current ngspice program size =   27.328 MB.

