
Note: Compatibility modes selected: hs a


Circuit: SKY130 library cell inv_4 A_to_Y

option SCALE: Scale is set to 1e-06 for instance and model parameters
Doing analysis at TEMP = 63.102943 and TNOM = 27.000000

Using KLU as Direct Linear Solver
 Reference value :  3.87285e-08
 Reference value :  1.38465e-07
 Reference value :  2.35879e-07
 Reference value :  3.33830e-07
No. of Data Rows : 68032

  Measurements for Transient Analysis

tphl                =  4.46926e-11 targ=  2.85602e-08 trig=  2.85155e-08
tplh                =  1.48928e-09 targ=  1.09036e-07 trig=  1.07547e-07
i_vdd_avg           =  -2.33756e-06 from=  1.00000e-08 to=  3.30005e-07
power_avg_uw        =  3.96675e+00


Total analysis time (seconds) = 0.874211

Total elapsed time (seconds) = 1.017 

Total DRAM available = 16384.000 MB.
DRAM currently available =   87.125 MB.
Maximum ngspice program size =   24.656 MB.
Current ngspice program size =   24.656 MB.

