
Note: Compatibility modes selected: hs a


Circuit: SKY130 library cell nand2_4 A_to_Y__B=1

option SCALE: Scale is set to 1e-06 for instance and model parameters
Doing analysis at TEMP = 101.610090 and TNOM = 27.000000

Using KLU as Direct Linear Solver
 Reference value :  1.63614e-08
 Reference value :  6.10294e-08
 Reference value :  1.07076e-07
 Reference value :  1.50766e-07
 Reference value :  1.96824e-07
 Reference value :  2.43699e-07
 Reference value :  2.89726e-07
 Reference value :  3.37461e-07
No. of Data Rows : 68030

  Measurements for Transient Analysis

tphl                =  4.12436e-10 targ=  2.66934e-08 trig=  2.62809e-08
tplh                =  9.66319e-10 targ=  1.01809e-07 trig=  1.00843e-07
i_vdd_avg           =  -2.85773e-06 from=  1.00000e-08 to=  3.30001e-07
power_avg_uw        =  5.14734e+00


Total analysis time (seconds) = 1.87434

Total elapsed time (seconds) = 2.028 

Total DRAM available = 16384.000 MB.
DRAM currently available =  117.547 MB.
Maximum ngspice program size =   26.656 MB.
Current ngspice program size =   26.656 MB.

