
Note: Compatibility modes selected: hs a


Circuit: SKY130 library cell xor2_1 A_to_X__B=0

option SCALE: Scale is set to 1e-06 for instance and model parameters
Doing analysis at TEMP = 45.143425 and TNOM = 27.000000

Using KLU as Direct Linear Solver
 Reference value :  2.15864e-08
 Reference value :  8.68793e-08
 Reference value :  1.55881e-07
 Reference value :  2.22324e-07
 Reference value :  2.88591e-07
No. of Data Rows : 68030

  Measurements for Transient Analysis

tplh                =  1.84799e-09 targ=  3.10289e-08 trig=  2.91809e-08
tphl                =  1.75533e-09 targ=  1.11298e-07 trig=  1.09543e-07
i_vdd_avg           =  -2.35484e-06 from=  1.00000e-08 to=  3.30001e-07
power_avg_uw        =  3.91960e+00


Total analysis time (seconds) = 1.27968

Total elapsed time (seconds) = 1.442 

Total DRAM available = 16384.000 MB.
DRAM currently available =  104.469 MB.
Maximum ngspice program size =   28.797 MB.
Current ngspice program size =   28.797 MB.

