
Note: Compatibility modes selected: hs a


Circuit: SKY130 library cell xor2_4 A_to_X__B=0

option SCALE: Scale is set to 1e-06 for instance and model parameters
Doing analysis at TEMP = 49.082942 and TNOM = 27.000000

Using KLU as Direct Linear Solver
 Reference value :  4.68640e-09
 Reference value :  2.26564e-08
 Reference value :  3.99362e-08
 Reference value :  5.76512e-08
 Reference value :  7.52712e-08
 Reference value :  9.28612e-08
 Reference value :  1.09271e-07
 Reference value :  1.25980e-07
 Reference value :  1.45105e-07
 Reference value :  1.62940e-07
 Reference value :  1.80925e-07
 Reference value :  1.98446e-07
 Reference value :  2.15026e-07
 Reference value :  2.32476e-07
 Reference value :  2.48891e-07
 Reference value :  2.65666e-07
 Reference value :  2.82525e-07
 Reference value :  2.99215e-07
 Reference value :  3.16825e-07
 Reference value :  3.34050e-07
No. of Data Rows : 68034

  Measurements for Transient Analysis

tplh                =  1.37010e-09 targ=  2.94769e-08 trig=  2.81069e-08
tphl                =  1.48630e-09 targ=  1.07807e-07 trig=  1.06321e-07
i_vdd_avg           =  -2.22043e-06 from=  1.00000e-08 to=  3.30005e-07
power_avg_uw        =  3.87003e+00


Total analysis time (seconds) = 4.95682

Total elapsed time (seconds) = 5.138 

Total DRAM available = 16384.000 MB.
DRAM currently available =  105.984 MB.
Maximum ngspice program size =   27.312 MB.
Current ngspice program size =   27.312 MB.

