
Note: Compatibility modes selected: hs a


Circuit: SKY130 library cell aoi21_4 A1_to_Y__A2=1,B1=0

option SCALE: Scale is set to 1e-06 for instance and model parameters
Doing analysis at TEMP = 99.929984 and TNOM = 27.000000

Using KLU as Direct Linear Solver
 Reference value :  6.38640e-09
 Reference value :  3.63739e-08
 Reference value :  6.54989e-08
 Reference value :  9.38889e-08
 Reference value :  1.23025e-07
 Reference value :  1.51920e-07
 Reference value :  1.79240e-07
 Reference value :  2.07934e-07
 Reference value :  2.35504e-07
 Reference value :  2.63129e-07
 Reference value :  2.90675e-07
 Reference value :  3.16995e-07
No. of Data Rows : 68030

  Measurements for Transient Analysis

tphl                =  2.94073e-10 targ=  2.68723e-08 trig=  2.65782e-08
tplh                =  8.69557e-10 targ=  1.02604e-07 trig=  1.01735e-07
i_vdd_avg           =  -1.46810e-06 from=  1.00000e-08 to=  3.30000e-07
power_avg_uw        =  2.84387e+00


Total analysis time (seconds) = 3.06901

Total elapsed time (seconds) = 3.257 

Total DRAM available = 16384.000 MB.
DRAM currently available =   99.500 MB.
Maximum ngspice program size =   28.250 MB.
Current ngspice program size =   28.250 MB.

