
Note: Compatibility modes selected: hs a


Circuit: SKY130 library cell mux2_1 A0_to_X__A1=0,S=0

option SCALE: Scale is set to 1e-06 for instance and model parameters
Doing analysis at TEMP = -35.710841 and TNOM = 27.000000

Using KLU as Direct Linear Solver
 Reference value :  1.66514e-08
 Reference value :  7.21195e-08
 Reference value :  1.22207e-07
 Reference value :  1.72772e-07
 Reference value :  2.27320e-07
 Reference value :  2.80157e-07
 Reference value :  3.32027e-07
No. of Data Rows : 68030

  Measurements for Transient Analysis

tplh                =  2.43447e-09 targ=  2.76005e-08 trig=  2.51660e-08
tphl                =  1.61478e-09 targ=  9.91128e-08 trig=  9.74981e-08
i_vdd_avg           =  -2.10689e-06 from=  1.00000e-08 to=  3.30002e-07
power_avg_uw        =  3.74762e+00


Total analysis time (seconds) = 1.65144

Total elapsed time (seconds) = 1.821 

Total DRAM available = 16384.000 MB.
DRAM currently available =   85.500 MB.
Maximum ngspice program size =   26.766 MB.
Current ngspice program size =   26.766 MB.

