
Note: Compatibility modes selected: hs a


Circuit: SKY130 library cell aoi21_1 A1_to_Y__A2=1,B1=0

option SCALE: Scale is set to 1e-06 for instance and model parameters
Doing analysis at TEMP = -28.230506 and TNOM = 27.000000

Using KLU as Direct Linear Solver
 Reference value :  3.32006e-08
 Reference value :  1.31599e-07
 Reference value :  2.27106e-07
 Reference value :  3.25834e-07
No. of Data Rows : 68034

  Measurements for Transient Analysis

tphl                =  2.06193e-09 targ=  2.85010e-08 trig=  2.64390e-08
tplh                =  4.64327e-09 targ=  1.05960e-07 trig=  1.01317e-07
i_vdd_avg           =  -1.40602e-06 from=  1.00000e-08 to=  3.30004e-07
power_avg_uw        =  2.45076e+00


Total analysis time (seconds) = 0.89216

Total elapsed time (seconds) = 1.052 

Total DRAM available = 16384.000 MB.
DRAM currently available =  142.531 MB.
Maximum ngspice program size =   26.406 MB.
Current ngspice program size =   26.406 MB.

