
Note: Compatibility modes selected: hs a


Circuit: SKY130 library cell nor2_4 A_to_Y__B=0

option SCALE: Scale is set to 1e-06 for instance and model parameters
Doing analysis at TEMP = 10.178798 and TNOM = 27.000000

Using KLU as Direct Linear Solver
 Reference value :  1.50464e-08
 Reference value :  6.13786e-08
 Reference value :  1.06249e-07
 Reference value :  1.50285e-07
 Reference value :  1.96259e-07
 Reference value :  2.39109e-07
 Reference value :  2.84555e-07
 Reference value :  3.31565e-07
No. of Data Rows : 68032

  Measurements for Transient Analysis

tphl                =  9.65762e-10 targ=  3.03338e-08 trig=  2.93680e-08
tplh                =  2.78400e-09 targ=  1.12888e-07 trig=  1.10104e-07
i_vdd_avg           =  -1.85238e-06 from=  1.00000e-08 to=  3.30005e-07
power_avg_uw        =  3.58299e+00


Total analysis time (seconds) = 1.91991

Total elapsed time (seconds) = 2.073 

Total DRAM available = 16384.000 MB.
DRAM currently available =   81.031 MB.
Maximum ngspice program size =   30.938 MB.
Current ngspice program size =   30.938 MB.

