
Note: Compatibility modes selected: hs a


Circuit: SKY130 library cell oai21_4 A1_to_Y__A2=0,B1=1

option SCALE: Scale is set to 1e-06 for instance and model parameters
Doing analysis at TEMP = -2.032879 and TNOM = 27.000000

Using KLU as Direct Linear Solver
 Reference value :  7.14140e-09
 Reference value :  3.66574e-08
 Reference value :  6.55024e-08
 Reference value :  9.13674e-08
 Reference value :  1.15877e-07
 Reference value :  1.41687e-07
 Reference value :  1.68447e-07
 Reference value :  1.93827e-07
 Reference value :  2.19932e-07
 Reference value :  2.47427e-07
 Reference value :  2.72647e-07
 Reference value :  2.99342e-07
 Reference value :  3.28477e-07
No. of Data Rows : 68032

  Measurements for Transient Analysis

tphl                =  2.87419e-10 targ=  2.47974e-08 trig=  2.45100e-08
tplh                =  5.95245e-10 targ=  9.61252e-08 trig=  9.55299e-08
i_vdd_avg           =  -8.58807e-07 from=  1.00000e-08 to=  3.30002e-07
power_avg_uw        =  1.64480e+00


Total analysis time (seconds) = 3.55499

Total elapsed time (seconds) = 3.732 

Total DRAM available = 16384.000 MB.
DRAM currently available =  163.984 MB.
Maximum ngspice program size =   25.828 MB.
Current ngspice program size =   25.828 MB.

