
Note: Compatibility modes selected: hs a


Circuit: SKY130 library cell inv_1 A_to_Y

option SCALE: Scale is set to 1e-06 for instance and model parameters
Doing analysis at TEMP = -14.152786 and TNOM = 27.000000

Using KLU as Direct Linear Solver
 Reference value :  1.30075e-07
No. of Data Rows : 68032

  Measurements for Transient Analysis

tphl                =  -3.07601e-10 targ=  2.78318e-08 trig=  2.81394e-08
tplh                =  9.08060e-10 targ=  1.07326e-07 trig=  1.06418e-07
i_vdd_avg           =  -6.93389e-08 from=  1.00000e-08 to=  3.30000e-07
power_avg_uw        =  1.24512e-01


Total analysis time (seconds) = 0.314482

Total elapsed time (seconds) = 0.444 

Total DRAM available = 16384.000 MB.
DRAM currently available =  336.047 MB.
Maximum ngspice program size =   24.594 MB.
Current ngspice program size =   24.594 MB.

