
Note: Compatibility modes selected: hs a


Circuit: SKY130 library cell xor2_4 A_to_X__B=0

option SCALE: Scale is set to 1e-06 for instance and model parameters
Doing analysis at TEMP = 91.626243 and TNOM = 27.000000

Using KLU as Direct Linear Solver
 Reference value :  4.63640e-09
 Reference value :  2.17964e-08
 Reference value :  3.77096e-08
 Reference value :  5.44346e-08
 Reference value :  7.13696e-08
 Reference value :  8.85796e-08
 Reference value :  1.06080e-07
 Reference value :  1.23687e-07
 Reference value :  1.41512e-07
 Reference value :  1.58412e-07
 Reference value :  1.74952e-07
 Reference value :  1.91553e-07
 Reference value :  2.07755e-07
 Reference value :  2.24260e-07
 Reference value :  2.41640e-07
 Reference value :  2.57850e-07
 Reference value :  2.75207e-07
 Reference value :  2.92932e-07
 Reference value :  3.08617e-07
 Reference value :  3.25047e-07
No. of Data Rows : 68030

  Measurements for Transient Analysis

tplh                =  -3.22402e-10 targ=  2.86362e-08 trig=  2.89586e-08
tphl                =  8.41655e-10 targ=  1.09717e-07 trig=  1.08876e-07
i_vdd_avg           =  -2.02834e-06 from=  1.00000e-08 to=  3.30002e-07
power_avg_uw        =  4.01444e+00


Total analysis time (seconds) = 5.11449

Total elapsed time (seconds) = 5.294 

Total DRAM available = 16384.000 MB.
DRAM currently available =  134.031 MB.
Maximum ngspice program size =   27.062 MB.
Current ngspice program size =   27.062 MB.

