
Note: Compatibility modes selected: hs a


Circuit: SKY130 library cell inv_4 A_to_Y

option SCALE: Scale is set to 1e-06 for instance and model parameters
Doing analysis at TEMP = 66.861085 and TNOM = 27.000000

Using KLU as Direct Linear Solver
 Reference value :  3.59022e-08
 Reference value :  1.37687e-07
 Reference value :  2.33562e-07
 Reference value :  3.22107e-07
No. of Data Rows : 68032

  Measurements for Transient Analysis

tphl                =  4.18386e-10 targ=  2.50033e-08 trig=  2.45849e-08
tplh                =  6.93574e-10 targ=  9.64482e-08 trig=  9.57546e-08
i_vdd_avg           =  -2.03341e-06 from=  1.00000e-08 to=  3.30002e-07
power_avg_uw        =  3.39717e+00


Total analysis time (seconds) = 0.885647

Total elapsed time (seconds) = 1.045 

Total DRAM available = 16384.000 MB.
DRAM currently available =  109.312 MB.
Maximum ngspice program size =   25.938 MB.
Current ngspice program size =   25.938 MB.

