
Note: Compatibility modes selected: hs a


Circuit: SKY130 library cell nor2_1 A_to_Y__B=0

option SCALE: Scale is set to 1e-06 for instance and model parameters
Doing analysis at TEMP = 98.364993 and TNOM = 27.000000

Using KLU as Direct Linear Solver
 Reference value :  4.84223e-08
 Reference value :  1.94677e-07
 Reference value :  3.39062e-07
No. of Data Rows : 68032

  Measurements for Transient Analysis

tphl                =  2.78590e-10 targ=  2.46885e-08 trig=  2.44099e-08
tplh                =  6.81696e-10 targ=  9.59114e-08 trig=  9.52297e-08
i_vdd_avg           =  -6.47877e-07 from=  1.00000e-08 to=  3.30002e-07
power_avg_uw        =  1.15907e+00


Total analysis time (seconds) = 0.600617

Total elapsed time (seconds) = 0.766 

Total DRAM available = 16384.000 MB.
DRAM currently available =   87.938 MB.
Maximum ngspice program size =   29.266 MB.
Current ngspice program size =   29.266 MB.

