
Note: Compatibility modes selected: hs a


Circuit: SKY130 library cell nor2_1 A_to_Y__B=0

option SCALE: Scale is set to 1e-06 for instance and model parameters
Doing analysis at TEMP = -30.115699 and TNOM = 27.000000

Using KLU as Direct Linear Solver
 Reference value :  4.95764e-08
 Reference value :  2.01881e-07
No. of Data Rows : 68032

  Measurements for Transient Analysis

tphl                =  2.79063e-10 targ=  2.44160e-08 trig=  2.41370e-08
tplh                =  1.42840e-09 targ=  9.58393e-08 trig=  9.44109e-08
i_vdd_avg           =  -7.35419e-07 from=  1.00000e-08 to=  3.30000e-07
power_avg_uw        =  1.35128e+00


Total analysis time (seconds) = 0.56142

Total elapsed time (seconds) = 0.719 

Total DRAM available = 16384.000 MB.
DRAM currently available =  148.328 MB.
Maximum ngspice program size =   25.656 MB.
Current ngspice program size =   25.656 MB.

