
Note: Compatibility modes selected: hs a


Circuit: SKY130 library cell nand3_4 A_to_Y__B=1,C=1

option SCALE: Scale is set to 1e-06 for instance and model parameters
Doing analysis at TEMP = 116.700870 and TNOM = 27.000000

Using KLU as Direct Linear Solver
 Reference value :  6.81640e-09
 Reference value :  3.47047e-08
 Reference value :  6.29947e-08
 Reference value :  9.15997e-08
 Reference value :  1.19337e-07
 Reference value :  1.47372e-07
 Reference value :  1.75662e-07
 Reference value :  2.04005e-07
 Reference value :  2.30520e-07
 Reference value :  2.58425e-07
 Reference value :  2.85702e-07
 Reference value :  3.13937e-07
No. of Data Rows : 68030

  Measurements for Transient Analysis

tphl                =  7.95897e-10 targ=  2.68570e-08 trig=  2.60611e-08
tplh                =  8.89079e-10 targ=  1.01072e-07 trig=  1.00183e-07
i_vdd_avg           =  -7.09713e-07 from=  1.00000e-08 to=  3.30002e-07
power_avg_uw        =  1.22966e+00


Total analysis time (seconds) = 3.08682

Total elapsed time (seconds) = 3.266 

Total DRAM available = 16384.000 MB.
DRAM currently available =  107.594 MB.
Maximum ngspice program size =   28.672 MB.
Current ngspice program size =   28.672 MB.

