
Note: Compatibility modes selected: hs a


Circuit: SKY130 library cell inv_4 A_to_Y

option SCALE: Scale is set to 1e-06 for instance and model parameters
Doing analysis at TEMP = -27.442075 and TNOM = 27.000000

Using KLU as Direct Linear Solver
 Reference value :  4.25967e-08
 Reference value :  1.29111e-07
 Reference value :  2.24752e-07
 Reference value :  3.26211e-07
No. of Data Rows : 68032

  Measurements for Transient Analysis

tphl                =  8.61003e-10 targ=  2.72181e-08 trig=  2.63571e-08
tplh                =  1.77765e-09 targ=  1.02849e-07 trig=  1.01071e-07
i_vdd_avg           =  -1.17596e-06 from=  1.00000e-08 to=  3.30001e-07
power_avg_uw        =  2.04806e+00


Total analysis time (seconds) = 0.905175

Total elapsed time (seconds) = 1.038 

Total DRAM available = 16384.000 MB.
DRAM currently available =  170.594 MB.
Maximum ngspice program size =   24.156 MB.
Current ngspice program size =   24.156 MB.

