
Note: Compatibility modes selected: hs a


Circuit: SKY130 library cell nand3_1 A_to_Y__B=1,C=1

option SCALE: Scale is set to 1e-06 for instance and model parameters
Doing analysis at TEMP = 3.967733 and TNOM = 27.000000

Using KLU as Direct Linear Solver
 Reference value :  3.79985e-08
 Reference value :  1.38075e-07
 Reference value :  2.35999e-07
 Reference value :  3.38250e-07
No. of Data Rows : 68032

  Measurements for Transient Analysis

tphl                =  3.24651e-09 targ=  3.06545e-08 trig=  2.74080e-08
tplh                =  3.89366e-09 targ=  1.08118e-07 trig=  1.04224e-07
i_vdd_avg           =  -2.28416e-06 from=  1.00000e-08 to=  3.30005e-07
power_avg_uw        =  4.25034e+00


Total analysis time (seconds) = 0.890762

Total elapsed time (seconds) = 1.054 

Total DRAM available = 16384.000 MB.
DRAM currently available =  265.781 MB.
Maximum ngspice program size =   25.875 MB.
Current ngspice program size =   25.875 MB.

