
Note: Compatibility modes selected: hs a


Circuit: SKY130 library cell aoi21_4 A1_to_Y__A2=1,B1=0

option SCALE: Scale is set to 1e-06 for instance and model parameters
Doing analysis at TEMP = 57.706027 and TNOM = 27.000000

Using KLU as Direct Linear Solver
 Reference value :  7.25640e-09
 Reference value :  3.55382e-08
 Reference value :  6.27532e-08
 Reference value :  9.16932e-08
 Reference value :  1.19869e-07
 Reference value :  1.47439e-07
 Reference value :  1.74934e-07
 Reference value :  2.03213e-07
 Reference value :  2.32093e-07
 Reference value :  2.63049e-07
 Reference value :  2.90954e-07
 Reference value :  3.19034e-07
No. of Data Rows : 68032

  Measurements for Transient Analysis

tphl                =  6.61171e-10 targ=  2.67990e-08 trig=  2.61378e-08
tplh                =  1.17031e-09 targ=  1.01584e-07 trig=  1.00414e-07
i_vdd_avg           =  -6.87342e-07 from=  1.00000e-08 to=  3.30004e-07
power_avg_uw        =  1.22130e+00


Total analysis time (seconds) = 3.03899

Total elapsed time (seconds) = 3.221 

Total DRAM available = 16384.000 MB.
DRAM currently available =   98.734 MB.
Maximum ngspice program size =   27.812 MB.
Current ngspice program size =   27.812 MB.

