
Note: Compatibility modes selected: hs a


Circuit: SKY130 library cell xor2_4 A_to_X__B=0

option SCALE: Scale is set to 1e-06 for instance and model parameters
Doing analysis at TEMP = 10.192038 and TNOM = 27.000000

Using KLU as Direct Linear Solver
 Reference value :  3.89640e-09
 Reference value :  2.25514e-08
 Reference value :  3.91116e-08
 Reference value :  5.64266e-08
 Reference value :  7.35266e-08
 Reference value :  9.18966e-08
 Reference value :  1.09426e-07
 Reference value :  1.27036e-07
 Reference value :  1.43516e-07
 Reference value :  1.61191e-07
 Reference value :  1.78376e-07
 Reference value :  1.96022e-07
 Reference value :  2.12552e-07
 Reference value :  2.30212e-07
 Reference value :  2.46747e-07
 Reference value :  2.63366e-07
 Reference value :  2.81711e-07
 Reference value :  2.98746e-07
 Reference value :  3.15826e-07
 Reference value :  3.33416e-07
No. of Data Rows : 68032

  Measurements for Transient Analysis

tplh                =  3.61521e-10 targ=  2.46061e-08 trig=  2.42446e-08
tphl                =  2.26545e-10 targ=  9.49602e-08 trig=  9.47337e-08
i_vdd_avg           =  -1.83001e-06 from=  1.00000e-08 to=  3.30001e-07
power_avg_uw        =  3.41339e+00


Total analysis time (seconds) = 4.95283

Total elapsed time (seconds) = 5.175 

Total DRAM available = 16384.000 MB.
DRAM currently available =  123.109 MB.
Maximum ngspice program size =   28.922 MB.
Current ngspice program size =   28.922 MB.

