
Note: Compatibility modes selected: hs a


Circuit: SKY130 library cell xor2_4 A_to_X__B=0

option SCALE: Scale is set to 1e-06 for instance and model parameters
Doing analysis at TEMP = 107.692090 and TNOM = 27.000000

Using KLU as Direct Linear Solver
 Reference value :  2.89140e-09
 Reference value :  1.84114e-08
 Reference value :  3.57584e-08
 Reference value :  5.29684e-08
 Reference value :  7.10384e-08
 Reference value :  8.90434e-08
 Reference value :  1.05133e-07
 Reference value :  1.22024e-07
 Reference value :  1.40669e-07
 Reference value :  1.58214e-07
 Reference value :  1.75609e-07
 Reference value :  1.92568e-07
 Reference value :  2.10038e-07
 Reference value :  2.26683e-07
 Reference value :  2.44253e-07
 Reference value :  2.62173e-07
 Reference value :  2.79344e-07
 Reference value :  2.97299e-07
 Reference value :  3.14249e-07
 Reference value :  3.31449e-07
No. of Data Rows : 68032

  Measurements for Transient Analysis

tplh                =  5.39724e-10 targ=  2.90827e-08 trig=  2.85430e-08
tphl                =  9.61421e-10 targ=  1.08590e-07 trig=  1.07629e-07
i_vdd_avg           =  -1.98409e-06 from=  1.00000e-08 to=  3.30004e-07
power_avg_uw        =  3.85347e+00


Total analysis time (seconds) = 4.95746

Total elapsed time (seconds) = 5.161 

Total DRAM available = 16384.000 MB.
DRAM currently available =   98.797 MB.
Maximum ngspice program size =   32.172 MB.
Current ngspice program size =   32.172 MB.

