
Note: Compatibility modes selected: hs a


Circuit: SKY130 library cell nor2_4 A_to_Y__B=0

option SCALE: Scale is set to 1e-06 for instance and model parameters
Doing analysis at TEMP = 31.340849 and TNOM = 27.000000

Using KLU as Direct Linear Solver
 Reference value :  1.47214e-08
 Reference value :  5.98686e-08
 Reference value :  1.06205e-07
 Reference value :  1.50335e-07
 Reference value :  1.96104e-07
 Reference value :  2.41144e-07
 Reference value :  2.88350e-07
 Reference value :  3.32620e-07
No. of Data Rows : 68032

  Measurements for Transient Analysis

tphl                =  2.47544e-10 targ=  2.51281e-08 trig=  2.48805e-08
tplh                =  6.66862e-10 targ=  9.73085e-08 trig=  9.66416e-08
i_vdd_avg           =  -8.59119e-07 from=  1.00000e-08 to=  3.30005e-07
power_avg_uw        =  1.52919e+00


Total analysis time (seconds) = 1.89148

Total elapsed time (seconds) = 2.048 

Total DRAM available = 16384.000 MB.
DRAM currently available =  186.906 MB.
Maximum ngspice program size =   24.578 MB.
Current ngspice program size =   24.578 MB.

