
Note: Compatibility modes selected: hs a


Circuit: SKY130 library cell nor2_4 A_to_Y__B=0

option SCALE: Scale is set to 1e-06 for instance and model parameters
Doing analysis at TEMP = -35.606452 and TNOM = 27.000000

Using KLU as Direct Linear Solver
 Reference value :  1.52014e-08
 Reference value :  6.02676e-08
 Reference value :  1.06033e-07
 Reference value :  1.50073e-07
 Reference value :  1.93933e-07
 Reference value :  2.36338e-07
 Reference value :  2.79718e-07
 Reference value :  3.22068e-07
No. of Data Rows : 68032

  Measurements for Transient Analysis

tphl                =  2.05746e-10 targ=  2.43458e-08 trig=  2.41401e-08
tplh                =  1.03423e-09 targ=  9.54544e-08 trig=  9.44202e-08
i_vdd_avg           =  -1.41770e-06 from=  1.00000e-08 to=  3.30003e-07
power_avg_uw        =  2.39705e+00


Total analysis time (seconds) = 1.9703

Total elapsed time (seconds) = 2.131 

Total DRAM available = 16384.000 MB.
DRAM currently available =  125.875 MB.
Maximum ngspice program size =   28.391 MB.
Current ngspice program size =   28.391 MB.

