
Note: Compatibility modes selected: hs a


Circuit: SKY130 library cell nand2_4 A_to_Y__B=1

option SCALE: Scale is set to 1e-06 for instance and model parameters
Doing analysis at TEMP = 26.825187 and TNOM = 27.000000

Using KLU as Direct Linear Solver
 Reference value :  1.56764e-08
 Reference value :  6.22111e-08
 Reference value :  1.10200e-07
 Reference value :  1.56325e-07
 Reference value :  2.01891e-07
 Reference value :  2.45226e-07
 Reference value :  2.92175e-07
 Reference value :  3.35835e-07
No. of Data Rows : 68034

  Measurements for Transient Analysis

tphl                =  1.60988e-10 targ=  2.46728e-08 trig=  2.45118e-08
tplh                =  3.48916e-10 targ=  9.58843e-08 trig=  9.55353e-08
i_vdd_avg           =  -1.43088e-06 from=  1.00000e-08 to=  3.30005e-07
power_avg_uw        =  2.82836e+00


Total analysis time (seconds) = 1.88362

Total elapsed time (seconds) = 2.038 

Total DRAM available = 16384.000 MB.
DRAM currently available =   94.703 MB.
Maximum ngspice program size =   26.688 MB.
Current ngspice program size =   26.688 MB.

