
Note: Compatibility modes selected: hs a


Circuit: SKY130 library cell nand3_1 A_to_Y__B=1,C=1

option SCALE: Scale is set to 1e-06 for instance and model parameters
Doing analysis at TEMP = 21.362297 and TNOM = 27.000000

Using KLU as Direct Linear Solver
 Reference value :  3.19525e-08
 Reference value :  1.29936e-07
 Reference value :  2.27944e-07
 Reference value :  3.15271e-07
No. of Data Rows : 68030

  Measurements for Transient Analysis

tphl                =  1.02944e-09 targ=  2.99354e-08 trig=  2.89060e-08
tplh                =  2.24033e-09 targ=  1.10958e-07 trig=  1.08718e-07
i_vdd_avg           =  -9.52905e-07 from=  1.00000e-08 to=  3.30001e-07
power_avg_uw        =  1.87556e+00


Total analysis time (seconds) = 0.910251

Total elapsed time (seconds) = 1.077 

Total DRAM available = 16384.000 MB.
DRAM currently available =  151.500 MB.
Maximum ngspice program size =   25.500 MB.
Current ngspice program size =   25.500 MB.

