
Note: Compatibility modes selected: hs a


Circuit: SKY130 library cell mux2_1 A0_to_X__A1=0,S=0

option SCALE: Scale is set to 1e-06 for instance and model parameters
Doing analysis at TEMP = 48.433026 and TNOM = 27.000000

Using KLU as Direct Linear Solver
 Reference value :  1.56664e-08
 Reference value :  6.93312e-08
 Reference value :  1.22985e-07
 Reference value :  1.76280e-07
 Reference value :  2.29856e-07
 Reference value :  2.84540e-07
 Reference value :  3.37455e-07
No. of Data Rows : 68034

  Measurements for Transient Analysis

tplh                =  2.13049e-09 targ=  2.78099e-08 trig=  2.56794e-08
tphl                =  1.89062e-09 targ=  1.00929e-07 trig=  9.90381e-08
i_vdd_avg           =  -1.63078e-06 from=  1.00000e-08 to=  3.30005e-07
power_avg_uw        =  2.75624e+00


Total analysis time (seconds) = 1.64502

Total elapsed time (seconds) = 1.812 

Total DRAM available = 16384.000 MB.
DRAM currently available =  171.391 MB.
Maximum ngspice program size =   25.781 MB.
Current ngspice program size =   25.781 MB.

