
Note: Compatibility modes selected: hs a


Circuit: SKY130 library cell xor2_4 A_to_X__B=0

option SCALE: Scale is set to 1e-06 for instance and model parameters
Doing analysis at TEMP = 80.726921 and TNOM = 27.000000

Using KLU as Direct Linear Solver
 Reference value :  3.92640e-09
 Reference value :  2.19664e-08
 Reference value :  4.03494e-08
 Reference value :  5.77744e-08
 Reference value :  7.35144e-08
 Reference value :  9.09294e-08
 Reference value :  1.08076e-07
 Reference value :  1.26541e-07
 Reference value :  1.42946e-07
 Reference value :  1.60136e-07
 Reference value :  1.77511e-07
 Reference value :  1.94234e-07
 Reference value :  2.11724e-07
 Reference value :  2.28414e-07
 Reference value :  2.45569e-07
 Reference value :  2.63156e-07
 Reference value :  2.79766e-07
 Reference value :  2.97026e-07
 Reference value :  3.14396e-07
 Reference value :  3.30756e-07
No. of Data Rows : 68030

  Measurements for Transient Analysis

tplh                =  2.78373e-10 targ=  2.52468e-08 trig=  2.49685e-08
tphl                =  3.87108e-10 targ=  9.72925e-08 trig=  9.69054e-08
i_vdd_avg           =  -1.66860e-06 from=  1.00000e-08 to=  3.30001e-07
power_avg_uw        =  2.88815e+00


Total analysis time (seconds) = 4.99529

Total elapsed time (seconds) = 5.183 

Total DRAM available = 16384.000 MB.
DRAM currently available =   98.797 MB.
Maximum ngspice program size =   29.469 MB.
Current ngspice program size =   29.469 MB.

