
Note: Compatibility modes selected: hs a


Circuit: SKY130 library cell nor2_4 A_to_Y__B=0

option SCALE: Scale is set to 1e-06 for instance and model parameters
Doing analysis at TEMP = 87.898560 and TNOM = 27.000000

Using KLU as Direct Linear Solver
 Reference value :  1.24264e-08
 Reference value :  5.80701e-08
 Reference value :  1.02070e-07
 Reference value :  1.46618e-07
 Reference value :  1.89843e-07
 Reference value :  2.34335e-07
 Reference value :  2.79553e-07
 Reference value :  3.25578e-07
No. of Data Rows : 68034

  Measurements for Transient Analysis

tphl                =  -9.01059e-11 targ=  2.82437e-08 trig=  2.83338e-08
tplh                =  1.47828e-09 targ=  1.08480e-07 trig=  1.07001e-07
i_vdd_avg           =  -3.48462e-06 from=  1.00000e-08 to=  3.30003e-07
power_avg_uw        =  6.49156e+00


Total analysis time (seconds) = 1.92472

Total elapsed time (seconds) = 2.088 

Total DRAM available = 16384.000 MB.
DRAM currently available =  147.672 MB.
Maximum ngspice program size =   27.781 MB.
Current ngspice program size =   27.781 MB.

