
Note: Compatibility modes selected: hs a


Circuit: SKY130 library cell inv_4 A_to_Y

option SCALE: Scale is set to 1e-06 for instance and model parameters
Doing analysis at TEMP = 118.255230 and TNOM = 27.000000

Using KLU as Direct Linear Solver
 Reference value :  3.74123e-08
 Reference value :  1.30417e-07
 Reference value :  2.25532e-07
 Reference value :  3.17272e-07
No. of Data Rows : 68032

  Measurements for Transient Analysis

tphl                =  1.42194e-11 targ=  2.61966e-08 trig=  2.61824e-08
tplh                =  6.53677e-10 targ=  1.01201e-07 trig=  1.00547e-07
i_vdd_avg           =  -2.86886e-06 from=  1.00000e-08 to=  3.30002e-07
power_avg_uw        =  5.53860e+00


Total analysis time (seconds) = 0.926686

Total elapsed time (seconds) = 1.068 

Total DRAM available = 16384.000 MB.
DRAM currently available =  109.312 MB.
Maximum ngspice program size =   26.094 MB.
Current ngspice program size =   26.094 MB.

