
Note: Compatibility modes selected: hs a


Circuit: SKY130 library cell mux2_1 A0_to_X__A1=0,S=0

option SCALE: Scale is set to 1e-06 for instance and model parameters
Doing analysis at TEMP = -17.351737 and TNOM = 27.000000

Using KLU as Direct Linear Solver
 Reference value :  1.28564e-08
 Reference value :  5.95453e-08
 Reference value :  1.09623e-07
 Reference value :  1.60993e-07
 Reference value :  2.09975e-07
 Reference value :  2.57560e-07
 Reference value :  3.06843e-07
No. of Data Rows : 68034

  Measurements for Transient Analysis

tplh                =  2.66253e-09 targ=  2.98639e-08 trig=  2.72014e-08
tphl                =  2.49231e-09 targ=  1.06096e-07 trig=  1.03604e-07
i_vdd_avg           =  -2.30867e-06 from=  1.00000e-08 to=  3.30003e-07
power_avg_uw        =  4.14651e+00


Total analysis time (seconds) = 1.81974

Total elapsed time (seconds) = 2.005 

Total DRAM available = 16384.000 MB.
DRAM currently available =  132.453 MB.
Maximum ngspice program size =   27.297 MB.
Current ngspice program size =   27.297 MB.

