
Note: Compatibility modes selected: hs a


Circuit: SKY130 library cell inv_4 A_to_Y

option SCALE: Scale is set to 1e-06 for instance and model parameters
Doing analysis at TEMP = 107.587220 and TNOM = 27.000000

Using KLU as Direct Linear Solver
 Reference value :  3.47590e-08
 Reference value :  1.25136e-07
 Reference value :  2.24399e-07
 Reference value :  3.18206e-07
No. of Data Rows : 68030

  Measurements for Transient Analysis

tphl                =  2.73679e-10 targ=  2.54994e-08 trig=  2.52258e-08
tplh                =  6.90141e-10 targ=  9.83674e-08 trig=  9.76773e-08
i_vdd_avg           =  -2.88692e-06 from=  1.00000e-08 to=  3.30001e-07
power_avg_uw        =  5.46438e+00


Total analysis time (seconds) = 0.913514

Total elapsed time (seconds) = 1.072 

Total DRAM available = 16384.000 MB.
DRAM currently available =  123.969 MB.
Maximum ngspice program size =   29.562 MB.
Current ngspice program size =   29.562 MB.

