
Note: Compatibility modes selected: hs a


Circuit: SKY130 library cell mux2_4 A0_to_X__A1=0,S=0

option SCALE: Scale is set to 1e-06 for instance and model parameters
Doing analysis at TEMP = 38.600042 and TNOM = 27.000000

Using KLU as Direct Linear Solver
 Reference value :  1.14914e-08
 Reference value :  4.87727e-08
 Reference value :  8.51977e-08
 Reference value :  1.19683e-07
 Reference value :  1.55413e-07
 Reference value :  1.92653e-07
 Reference value :  2.27478e-07
 Reference value :  2.64558e-07
 Reference value :  2.98313e-07
 Reference value :  3.34673e-07
No. of Data Rows : 68032

  Measurements for Transient Analysis

tplh                =  4.75573e-10 targ=  3.03082e-08 trig=  2.98326e-08
tphl                =  1.89335e-09 targ=  1.13391e-07 trig=  1.11498e-07
i_vdd_avg           =  -8.32450e-07 from=  1.00000e-08 to=  3.30003e-07
power_avg_uw        =  1.42418e+00


Total analysis time (seconds) = 2.41796

Total elapsed time (seconds) = 2.577 

Total DRAM available = 16384.000 MB.
DRAM currently available =  185.219 MB.
Maximum ngspice program size =   26.156 MB.
Current ngspice program size =   26.156 MB.

