
Note: Compatibility modes selected: hs a


Circuit: SKY130 library cell nand2_1 A_to_Y__B=1

option SCALE: Scale is set to 1e-06 for instance and model parameters
Doing analysis at TEMP = 105.885960 and TNOM = 27.000000

Using KLU as Direct Linear Solver
 Reference value :  5.69081e-08
 Reference value :  2.27108e-07
No. of Data Rows : 68032

  Measurements for Transient Analysis

tphl                =  2.06130e-09 targ=  2.99141e-08 trig=  2.78528e-08
tplh                =  2.81484e-09 targ=  1.08373e-07 trig=  1.05558e-07
i_vdd_avg           =  -2.31886e-06 from=  1.00000e-08 to=  3.30004e-07
power_avg_uw        =  4.43041e+00


Total analysis time (seconds) = 0.52247

Total elapsed time (seconds) = 0.683 

Total DRAM available = 16384.000 MB.
DRAM currently available =  101.219 MB.
Maximum ngspice program size =   24.812 MB.
Current ngspice program size =   24.812 MB.

