
Note: Compatibility modes selected: hs a


Circuit: SKY130 library cell nor2_1 A_to_Y__B=0

option SCALE: Scale is set to 1e-06 for instance and model parameters
Doing analysis at TEMP = 27.175850 and TNOM = 27.000000

Using KLU as Direct Linear Solver
 Reference value :  6.19195e-08
 Reference value :  2.11269e-07
No. of Data Rows : 68030

  Measurements for Transient Analysis

tphl                =  1.57731e-09 targ=  2.77233e-08 trig=  2.61460e-08
tplh                =  3.73007e-09 targ=  1.04168e-07 trig=  1.00438e-07
i_vdd_avg           =  -1.00609e-06 from=  1.00000e-08 to=  3.30001e-07
power_avg_uw        =  1.66201e+00


Total analysis time (seconds) = 0.579007

Total elapsed time (seconds) = 0.722 

Total DRAM available = 16384.000 MB.
DRAM currently available =  131.141 MB.
Maximum ngspice program size =   26.750 MB.
Current ngspice program size =   26.750 MB.

