
Note: Compatibility modes selected: hs a


Circuit: SKY130 library cell nand2_4 A_to_Y__B=1

option SCALE: Scale is set to 1e-06 for instance and model parameters
Doing analysis at TEMP = 46.093485 and TNOM = 27.000000

Using KLU as Direct Linear Solver
 Reference value :  1.94814e-08
 Reference value :  6.70811e-08
 Reference value :  1.09050e-07
 Reference value :  1.59690e-07
 Reference value :  2.06941e-07
 Reference value :  2.58705e-07
 Reference value :  3.05795e-07
No. of Data Rows : 68034

  Measurements for Transient Analysis

tphl                =  3.09811e-10 targ=  2.47791e-08 trig=  2.44693e-08
tplh                =  4.15374e-10 targ=  9.58232e-08 trig=  9.54079e-08
i_vdd_avg           =  -9.68670e-07 from=  1.00000e-08 to=  3.30005e-07
power_avg_uw        =  1.90425e+00


Total analysis time (seconds) = 1.79761

Total elapsed time (seconds) = 1.951 

Total DRAM available = 16384.000 MB.
DRAM currently available =  102.938 MB.
Maximum ngspice program size =   28.609 MB.
Current ngspice program size =   28.609 MB.

