
Note: Compatibility modes selected: hs a


Circuit: SKY130 library cell oai21_1 A1_to_Y__A2=0,B1=1

option SCALE: Scale is set to 1e-06 for instance and model parameters
Doing analysis at TEMP = 122.458450 and TNOM = 27.000000

Using KLU as Direct Linear Solver
 Reference value :  3.34415e-08
 Reference value :  1.31276e-07
 Reference value :  2.36087e-07
 Reference value :  3.35866e-07
No. of Data Rows : 68032

  Measurements for Transient Analysis

tphl                =  3.91180e-10 targ=  2.49407e-08 trig=  2.45495e-08
tplh                =  7.47828e-10 targ=  9.63964e-08 trig=  9.56485e-08
i_vdd_avg           =  -8.57260e-07 from=  1.00000e-08 to=  3.30001e-07
power_avg_uw        =  1.64045e+00


Total analysis time (seconds) = 0.863268

Total elapsed time (seconds) = 1.023 

Total DRAM available = 16384.000 MB.
DRAM currently available =  124.594 MB.
Maximum ngspice program size =   25.312 MB.
Current ngspice program size =   25.312 MB.

