
Note: Compatibility modes selected: hs a


Circuit: SKY130 library cell nor2_1 A_to_Y__B=0

option SCALE: Scale is set to 1e-06 for instance and model parameters
Doing analysis at TEMP = 111.856400 and TNOM = 27.000000

Using KLU as Direct Linear Solver
 Reference value :  5.41727e-08
 Reference value :  2.07813e-07
No. of Data Rows : 68032

  Measurements for Transient Analysis

tphl                =  1.03102e-09 targ=  2.61686e-08 trig=  2.51376e-08
tplh                =  2.49594e-09 targ=  9.99087e-08 trig=  9.74128e-08
i_vdd_avg           =  -1.79385e-06 from=  1.00000e-08 to=  3.30003e-07
power_avg_uw        =  3.17640e+00


Total analysis time (seconds) = 0.595858

Total elapsed time (seconds) = 0.745 

Total DRAM available = 16384.000 MB.
DRAM currently available =   98.688 MB.
Maximum ngspice program size =   25.969 MB.
Current ngspice program size =   25.969 MB.

