
Note: Compatibility modes selected: hs a


Circuit: SKY130 library cell nand2_1 A_to_Y__B=1

option SCALE: Scale is set to 1e-06 for instance and model parameters
Doing analysis at TEMP = -7.524815 and TNOM = 27.000000

Using KLU as Direct Linear Solver
 Reference value :  6.88488e-08
 Reference value :  2.21919e-07
No. of Data Rows : 68030

  Measurements for Transient Analysis

tphl                =  6.22614e-10 targ=  2.68433e-08 trig=  2.62207e-08
tplh                =  1.57087e-09 targ=  1.02233e-07 trig=  1.00662e-07
i_vdd_avg           =  -1.04897e-06 from=  1.00000e-08 to=  3.30000e-07
power_avg_uw        =  1.91850e+00


Total analysis time (seconds) = 0.566699

Total elapsed time (seconds) = 0.710 

Total DRAM available = 16384.000 MB.
DRAM currently available =  110.547 MB.
Maximum ngspice program size =   25.891 MB.
Current ngspice program size =   25.891 MB.

