
Note: Compatibility modes selected: hs a


Circuit: SKY130 library cell nand3_1 A_to_Y__B=1,C=1

option SCALE: Scale is set to 1e-06 for instance and model parameters
Doing analysis at TEMP = 17.401249 and TNOM = 27.000000

Using KLU as Direct Linear Solver
 Reference value :  2.41225e-08
 Reference value :  1.24604e-07
 Reference value :  2.26751e-07
 Reference value :  3.20904e-07
No. of Data Rows : 68034

  Measurements for Transient Analysis

tphl                =  5.69244e-11 targ=  2.41461e-08 trig=  2.40892e-08
tplh                =  8.40396e-11 targ=  9.43516e-08 trig=  9.42676e-08
i_vdd_avg           =  -9.06000e-08 from=  1.00000e-08 to=  3.30004e-07
power_avg_uw        =  1.70180e-01


Total analysis time (seconds) = 0.905403

Total elapsed time (seconds) = 1.074 

Total DRAM available = 16384.000 MB.
DRAM currently available =  132.828 MB.
Maximum ngspice program size =   25.828 MB.
Current ngspice program size =   25.828 MB.

