
Note: Compatibility modes selected: hs a


Circuit: SKY130 library cell nand2_4 A_to_Y__B=1

option SCALE: Scale is set to 1e-06 for instance and model parameters
Doing analysis at TEMP = 83.821126 and TNOM = 27.000000

Using KLU as Direct Linear Solver
 Reference value :  1.73714e-08
 Reference value :  6.80710e-08
 Reference value :  1.14284e-07
 Reference value :  1.62929e-07
 Reference value :  2.13511e-07
 Reference value :  2.58691e-07
 Reference value :  3.04309e-07
No. of Data Rows : 68034

  Measurements for Transient Analysis

tphl                =  5.77242e-10 targ=  2.60865e-08 trig=  2.55092e-08
tplh                =  8.08737e-10 targ=  9.93364e-08 trig=  9.85277e-08
i_vdd_avg           =  -6.46404e-07 from=  1.00000e-08 to=  3.30004e-07
power_avg_uw        =  1.12413e+00


Total analysis time (seconds) = 1.80105

Total elapsed time (seconds) = 1.957 

Total DRAM available = 16384.000 MB.
DRAM currently available =   79.031 MB.
Maximum ngspice program size =   26.906 MB.
Current ngspice program size =   26.906 MB.

