
Note: Compatibility modes selected: hs a


Circuit: SKY130 library cell oai21_1 A1_to_Y__A2=0,B1=1

option SCALE: Scale is set to 1e-06 for instance and model parameters
Doing analysis at TEMP = 4.838284 and TNOM = 27.000000

Using KLU as Direct Linear Solver
 Reference value :  3.41598e-08
 Reference value :  1.24902e-07
 Reference value :  2.24915e-07
 Reference value :  3.26132e-07
No. of Data Rows : 68030

  Measurements for Transient Analysis

tphl                =  2.42414e-10 targ=  2.65610e-08 trig=  2.63186e-08
tplh                =  1.06901e-09 targ=  1.02025e-07 trig=  1.00956e-07
i_vdd_avg           =  -2.43219e-07 from=  1.00000e-08 to=  3.30002e-07
power_avg_uw        =  4.63033e-01


Total analysis time (seconds) = 0.886209

Total elapsed time (seconds) = 1.043 

Total DRAM available = 16384.000 MB.
DRAM currently available =  120.781 MB.
Maximum ngspice program size =   26.359 MB.
Current ngspice program size =   26.359 MB.

