
Note: Compatibility modes selected: hs a


Circuit: SKY130 library cell nand2_1 A_to_Y__B=1

option SCALE: Scale is set to 1e-06 for instance and model parameters
Doing analysis at TEMP = 83.014994 and TNOM = 27.000000

Using KLU as Direct Linear Solver
 Reference value :  5.84000e-08
 Reference value :  2.07310e-07
No. of Data Rows : 68030

  Measurements for Transient Analysis

tphl                =  7.13009e-10 targ=  2.75668e-08 trig=  2.68537e-08
tplh                =  1.50178e-09 targ=  1.04063e-07 trig=  1.02561e-07
i_vdd_avg           =  -1.57762e-06 from=  1.00000e-08 to=  3.30002e-07
power_avg_uw        =  3.09915e+00


Total analysis time (seconds) = 0.574318

Total elapsed time (seconds) = 0.725 

Total DRAM available = 16384.000 MB.
DRAM currently available =  126.391 MB.
Maximum ngspice program size =   26.078 MB.
Current ngspice program size =   26.078 MB.

