
Note: Compatibility modes selected: hs a


Circuit: SKY130 library cell nor2_1 A_to_Y__B=0

option SCALE: Scale is set to 1e-06 for instance and model parameters
Doing analysis at TEMP = -7.657183 and TNOM = 27.000000

Using KLU as Direct Linear Solver
 Reference value :  4.66469e-08
 Reference value :  2.01632e-07
 Reference value :  3.35336e-07
No. of Data Rows : 68032

  Measurements for Transient Analysis

tphl                =  1.74108e-09 targ=  2.82183e-08 trig=  2.64772e-08
tplh                =  5.08180e-09 targ=  1.06513e-07 trig=  1.01432e-07
i_vdd_avg           =  -2.02578e-06 from=  1.00000e-08 to=  3.30001e-07
power_avg_uw        =  3.32686e+00


Total analysis time (seconds) = 0.606197

Total elapsed time (seconds) = 0.762 

Total DRAM available = 16384.000 MB.
DRAM currently available =   98.688 MB.
Maximum ngspice program size =   26.312 MB.
Current ngspice program size =   26.312 MB.

