
Note: Compatibility modes selected: hs a


Circuit: SKY130 library cell mux2_1 A0_to_X__A1=0,S=0

option SCALE: Scale is set to 1e-06 for instance and model parameters
Doing analysis at TEMP = 2.188316 and TNOM = 27.000000

Using KLU as Direct Linear Solver
 Reference value :  1.69964e-08
 Reference value :  6.60216e-08
 Reference value :  1.16186e-07
 Reference value :  1.67601e-07
 Reference value :  2.19677e-07
 Reference value :  2.70416e-07
 Reference value :  3.20831e-07
No. of Data Rows : 68032

  Measurements for Transient Analysis

tplh                =  1.20651e-09 targ=  2.83011e-08 trig=  2.70945e-08
tphl                =  2.01438e-09 targ=  1.05298e-07 trig=  1.03284e-07
i_vdd_avg           =  -5.67459e-07 from=  1.00000e-08 to=  3.30001e-07
power_avg_uw        =  9.82018e-01


Total analysis time (seconds) = 1.72446

Total elapsed time (seconds) = 1.909 

Total DRAM available = 16384.000 MB.
DRAM currently available =  137.578 MB.
Maximum ngspice program size =   26.141 MB.
Current ngspice program size =   26.141 MB.

