
Note: Compatibility modes selected: hs a


Circuit: SKY130 library cell oai21_1 A1_to_Y__A2=0,B1=1

option SCALE: Scale is set to 1e-06 for instance and model parameters
Doing analysis at TEMP = 109.112000 and TNOM = 27.000000

Using KLU as Direct Linear Solver
 Reference value :  3.04243e-08
 Reference value :  1.25096e-07
 Reference value :  2.22974e-07
 Reference value :  3.21391e-07
No. of Data Rows : 68030

  Measurements for Transient Analysis

tphl                =  5.50255e-10 targ=  2.53937e-08 trig=  2.48434e-08
tplh                =  8.81646e-10 targ=  9.74119e-08 trig=  9.65303e-08
i_vdd_avg           =  -3.11260e-07 from=  1.00000e-08 to=  3.30001e-07
power_avg_uw        =  5.55210e-01


Total analysis time (seconds) = 0.889229

Total elapsed time (seconds) = 1.054 

Total DRAM available = 16384.000 MB.
DRAM currently available =  120.938 MB.
Maximum ngspice program size =   26.641 MB.
Current ngspice program size =   26.641 MB.

