
Note: Compatibility modes selected: hs a


Circuit: SKY130 library cell nand3_1 A_to_Y__B=1,C=1

option SCALE: Scale is set to 1e-06 for instance and model parameters
Doing analysis at TEMP = 105.359500 and TNOM = 27.000000

Using KLU as Direct Linear Solver
 Reference value :  3.10825e-08
 Reference value :  1.23709e-07
 Reference value :  2.27918e-07
 Reference value :  3.30654e-07
No. of Data Rows : 68032

  Measurements for Transient Analysis

tphl                =  1.76767e-09 targ=  2.93154e-08 trig=  2.75478e-08
tplh                =  2.36410e-09 targ=  1.07007e-07 trig=  1.04643e-07
i_vdd_avg           =  -1.63469e-06 from=  1.00000e-08 to=  3.30004e-07
power_avg_uw        =  2.70151e+00


Total analysis time (seconds) = 0.882732

Total elapsed time (seconds) = 1.035 

Total DRAM available = 16384.000 MB.
DRAM currently available =  179.109 MB.
Maximum ngspice program size =   25.484 MB.
Current ngspice program size =   25.484 MB.

