
Note: Compatibility modes selected: hs a


Circuit: SKY130 library cell nand2_4 A_to_Y__B=1

option SCALE: Scale is set to 1e-06 for instance and model parameters
Doing analysis at TEMP = -15.885202 and TNOM = 27.000000

Using KLU as Direct Linear Solver
 Reference value :  1.28614e-08
 Reference value :  5.80306e-08
 Reference value :  1.03836e-07
 Reference value :  1.47984e-07
 Reference value :  1.93626e-07
 Reference value :  2.41776e-07
 Reference value :  2.90779e-07
 Reference value :  3.36799e-07
No. of Data Rows : 68034

  Measurements for Transient Analysis

tphl                =  2.98737e-10 targ=  2.70478e-08 trig=  2.67491e-08
tplh                =  1.00734e-09 targ=  1.03255e-07 trig=  1.02247e-07
i_vdd_avg           =  -3.43197e-07 from=  1.00000e-08 to=  3.30004e-07
power_avg_uw        =  6.50348e-01


Total analysis time (seconds) = 1.87484

Total elapsed time (seconds) = 2.043 

Total DRAM available = 16384.000 MB.
DRAM currently available =   94.703 MB.
Maximum ngspice program size =   26.938 MB.
Current ngspice program size =   26.938 MB.

