
Note: Compatibility modes selected: hs a


Circuit: SKY130 library cell nand3_4 A_to_Y__B=1,C=1

option SCALE: Scale is set to 1e-06 for instance and model parameters
Doing analysis at TEMP = 103.573070 and TNOM = 27.000000

Using KLU as Direct Linear Solver
 Reference value :  6.71140e-09
 Reference value :  3.50401e-08
 Reference value :  6.23201e-08
 Reference value :  8.94751e-08
 Reference value :  1.15260e-07
 Reference value :  1.43598e-07
 Reference value :  1.71088e-07
 Reference value :  1.98880e-07
 Reference value :  2.26920e-07
 Reference value :  2.53595e-07
 Reference value :  2.80853e-07
 Reference value :  3.08303e-07
 Reference value :  3.33478e-07
No. of Data Rows : 68034

  Measurements for Transient Analysis

tphl                =  1.25755e-10 targ=  2.94796e-08 trig=  2.93538e-08
tplh                =  1.10395e-09 targ=  1.11165e-07 trig=  1.10061e-07
i_vdd_avg           =  -3.12972e-06 from=  1.00000e-08 to=  3.30003e-07
power_avg_uw        =  5.50745e+00


Total analysis time (seconds) = 3.21829

Total elapsed time (seconds) = 3.410 

Total DRAM available = 16384.000 MB.
DRAM currently available =  132.047 MB.
Maximum ngspice program size =   28.938 MB.
Current ngspice program size =   28.938 MB.

