
Note: Compatibility modes selected: hs a


Circuit: SKY130 library cell nand2_4 A_to_Y__B=1

option SCALE: Scale is set to 1e-06 for instance and model parameters
Doing analysis at TEMP = 69.531650 and TNOM = 27.000000

Using KLU as Direct Linear Solver
 Reference value :  1.11514e-08
 Reference value :  5.55043e-08
 Reference value :  1.03556e-07
 Reference value :  1.49361e-07
 Reference value :  1.96574e-07
 Reference value :  2.43869e-07
 Reference value :  2.90516e-07
 Reference value :  3.34136e-07
No. of Data Rows : 68030

  Measurements for Transient Analysis

tphl                =  5.23331e-10 targ=  2.55642e-08 trig=  2.50409e-08
tplh                =  7.92430e-10 targ=  9.79151e-08 trig=  9.71227e-08
i_vdd_avg           =  -1.44833e-06 from=  1.00000e-08 to=  3.30001e-07
power_avg_uw        =  2.46193e+00


Total analysis time (seconds) = 1.87774

Total elapsed time (seconds) = 2.052 

Total DRAM available = 16384.000 MB.
DRAM currently available =  117.984 MB.
Maximum ngspice program size =   26.328 MB.
Current ngspice program size =   26.328 MB.

