
Note: Compatibility modes selected: hs a


Circuit: SKY130 library cell mux2_1 A0_to_X__A1=0,S=0

option SCALE: Scale is set to 1e-06 for instance and model parameters
Doing analysis at TEMP = 7.691676 and TNOM = 27.000000

Using KLU as Direct Linear Solver
 Reference value :  1.20114e-08
 Reference value :  6.29508e-08
 Reference value :  1.12716e-07
 Reference value :  1.65169e-07
 Reference value :  2.17411e-07
 Reference value :  2.66956e-07
 Reference value :  3.19329e-07
No. of Data Rows : 68034

  Measurements for Transient Analysis

tplh                =  1.04949e-09 targ=  3.02612e-08 trig=  2.92117e-08
tphl                =  2.05943e-09 targ=  1.11694e-07 trig=  1.09635e-07
i_vdd_avg           =  -2.11861e-06 from=  1.00000e-08 to=  3.30004e-07
power_avg_uw        =  3.92736e+00


Total analysis time (seconds) = 1.73634

Total elapsed time (seconds) = 1.920 

Total DRAM available = 16384.000 MB.
DRAM currently available =  163.234 MB.
Maximum ngspice program size =   25.922 MB.
Current ngspice program size =   25.922 MB.

