
Note: Compatibility modes selected: hs a


Circuit: SKY130 library cell mux2_1 A0_to_X__A1=0,S=0

option SCALE: Scale is set to 1e-06 for instance and model parameters
Doing analysis at TEMP = 102.967590 and TNOM = 27.000000

Using KLU as Direct Linear Solver
 Reference value :  1.18164e-08
 Reference value :  6.22380e-08
 Reference value :  1.11698e-07
 Reference value :  1.59549e-07
 Reference value :  2.07918e-07
 Reference value :  2.55598e-07
 Reference value :  3.04534e-07
No. of Data Rows : 68032

  Measurements for Transient Analysis

tplh                =  1.94780e-10 targ=  2.89725e-08 trig=  2.87778e-08
tphl                =  1.56409e-09 targ=  1.09897e-07 trig=  1.08333e-07
i_vdd_avg           =  -1.93699e-06 from=  1.00000e-08 to=  3.30004e-07
power_avg_uw        =  3.70274e+00


Total analysis time (seconds) = 1.94725

Total elapsed time (seconds) = 2.134 

Total DRAM available = 16384.000 MB.
DRAM currently available =  129.203 MB.
Maximum ngspice program size =   28.188 MB.
Current ngspice program size =   28.188 MB.

