
Note: Compatibility modes selected: hs a


Circuit: SKY130 library cell nand2_4 A_to_Y__B=1

option SCALE: Scale is set to 1e-06 for instance and model parameters
Doing analysis at TEMP = -25.111650 and TNOM = 27.000000

Using KLU as Direct Linear Solver
 Reference value :  1.78364e-08
 Reference value :  7.25465e-08
 Reference value :  1.21741e-07
 Reference value :  1.67996e-07
 Reference value :  2.13542e-07
 Reference value :  2.60232e-07
 Reference value :  3.06271e-07
No. of Data Rows : 68032

  Measurements for Transient Analysis

tphl                =  -4.39337e-10 targ=  2.76352e-08 trig=  2.80745e-08
tplh                =  7.47469e-10 targ=  1.06971e-07 trig=  1.06224e-07
i_vdd_avg           =  -3.84099e-07 from=  1.00000e-08 to=  3.30001e-07
power_avg_uw        =  7.32857e-01


Total analysis time (seconds) = 1.79355

Total elapsed time (seconds) = 1.951 

Total DRAM available = 16384.000 MB.
DRAM currently available =  145.406 MB.
Maximum ngspice program size =   27.844 MB.
Current ngspice program size =   27.844 MB.

