
Note: Compatibility modes selected: hs a


Circuit: SKY130 library cell aoi21_4 A1_to_Y__A2=1,B1=0

option SCALE: Scale is set to 1e-06 for instance and model parameters
Doing analysis at TEMP = 103.004680 and TNOM = 27.000000

Using KLU as Direct Linear Solver
 Reference value :  6.29640e-09
 Reference value :  3.64601e-08
 Reference value :  6.61151e-08
 Reference value :  9.40801e-08
 Reference value :  1.22613e-07
 Reference value :  1.50638e-07
 Reference value :  1.78568e-07
 Reference value :  2.07005e-07
 Reference value :  2.36080e-07
 Reference value :  2.63160e-07
 Reference value :  2.91053e-07
 Reference value :  3.19018e-07
No. of Data Rows : 68034

  Measurements for Transient Analysis

tphl                =  1.33662e-09 targ=  2.83304e-08 trig=  2.69938e-08
tplh                =  1.96566e-09 targ=  1.04947e-07 trig=  1.02981e-07
i_vdd_avg           =  -2.11738e-06 from=  1.00000e-08 to=  3.30003e-07
power_avg_uw        =  3.85589e+00


Total analysis time (seconds) = 3.08128

Total elapsed time (seconds) = 3.261 

Total DRAM available = 16384.000 MB.
DRAM currently available =  107.516 MB.
Maximum ngspice program size =   26.266 MB.
Current ngspice program size =   26.266 MB.

