
Note: Compatibility modes selected: hs a


Circuit: SKY130 library cell nor2_4 A_to_Y__B=0

option SCALE: Scale is set to 1e-06 for instance and model parameters
Doing analysis at TEMP = 48.369352 and TNOM = 27.000000

Using KLU as Direct Linear Solver
 Reference value :  1.64964e-08
 Reference value :  6.01882e-08
 Reference value :  1.05234e-07
 Reference value :  1.49904e-07
 Reference value :  1.94413e-07
 Reference value :  2.38643e-07
 Reference value :  2.82389e-07
 Reference value :  3.26629e-07
No. of Data Rows : 68032

  Measurements for Transient Analysis

tphl                =  4.21809e-10 targ=  2.64097e-08 trig=  2.59879e-08
tplh                =  1.22550e-09 targ=  1.01189e-07 trig=  9.99636e-08
i_vdd_avg           =  -1.45749e-06 from=  1.00000e-08 to=  3.30004e-07
power_avg_uw        =  2.60868e+00


Total analysis time (seconds) = 1.93255

Total elapsed time (seconds) = 2.093 

Total DRAM available = 16384.000 MB.
DRAM currently available =  123.125 MB.
Maximum ngspice program size =   26.203 MB.
Current ngspice program size =   26.203 MB.

