
Note: Compatibility modes selected: hs a


Circuit: SKY130 library cell nand3_1 A_to_Y__B=1,C=1

option SCALE: Scale is set to 1e-06 for instance and model parameters
Doing analysis at TEMP = 90.289440 and TNOM = 27.000000

Using KLU as Direct Linear Solver
 Reference value :  3.00275e-08
 Reference value :  1.26730e-07
 Reference value :  2.28229e-07
 Reference value :  3.23560e-07
No. of Data Rows : 68032

  Measurements for Transient Analysis

tphl                =  5.91201e-10 targ=  2.92167e-08 trig=  2.86255e-08
tplh                =  1.52940e-09 targ=  1.09406e-07 trig=  1.07877e-07
i_vdd_avg           =  -7.12890e-07 from=  1.00000e-08 to=  3.30005e-07
power_avg_uw        =  1.20206e+00


Total analysis time (seconds) = 0.892992

Total elapsed time (seconds) = 1.128 

Total DRAM available = 16384.000 MB.
DRAM currently available =  157.109 MB.
Maximum ngspice program size =   26.312 MB.
Current ngspice program size =   26.312 MB.

