
Note: Compatibility modes selected: hs a


Circuit: SKY130 library cell oai21_4 A1_to_Y__A2=0,B1=1

option SCALE: Scale is set to 1e-06 for instance and model parameters
Doing analysis at TEMP = -24.680761 and TNOM = 27.000000

Using KLU as Direct Linear Solver
 Reference value :  6.46640e-09
 Reference value :  3.45710e-08
 Reference value :  6.31060e-08
 Reference value :  9.08110e-08
 Reference value :  1.18064e-07
 Reference value :  1.47764e-07
 Reference value :  1.74779e-07
 Reference value :  2.03326e-07
 Reference value :  2.30766e-07
 Reference value :  2.58521e-07
 Reference value :  2.85904e-07
 Reference value :  3.11804e-07
 Reference value :  3.38504e-07
No. of Data Rows : 68034

  Measurements for Transient Analysis

tphl                =  -4.96153e-10 targ=  2.86681e-08 trig=  2.91642e-08
tplh                =  1.52154e-09 targ=  1.11014e-07 trig=  1.09493e-07
i_vdd_avg           =  -4.93846e-07 from=  1.00000e-08 to=  3.30004e-07
power_avg_uw        =  8.39623e-01


Total analysis time (seconds) = 3.12285

Total elapsed time (seconds) = 3.305 

Total DRAM available = 16384.000 MB.
DRAM currently available =  131.406 MB.
Maximum ngspice program size =   27.172 MB.
Current ngspice program size =   27.172 MB.

