
Note: Compatibility modes selected: hs a


Circuit: SKY130 library cell inv_4 A_to_Y

option SCALE: Scale is set to 1e-06 for instance and model parameters
Doing analysis at TEMP = 41.706845 and TNOM = 27.000000

Using KLU as Direct Linear Solver
 Reference value :  3.45875e-08
 Reference value :  1.25441e-07
 Reference value :  2.20939e-07
 Reference value :  3.21296e-07
No. of Data Rows : 68030

  Measurements for Transient Analysis

tphl                =  -1.34049e-10 targ=  2.98044e-08 trig=  2.99385e-08
tplh                =  1.96297e-09 targ=  1.13778e-07 trig=  1.11815e-07
i_vdd_avg           =  -4.07128e-06 from=  1.00000e-08 to=  3.30001e-07
power_avg_uw        =  7.47236e+00


Total analysis time (seconds) = 0.900651

Total elapsed time (seconds) = 1.056 

Total DRAM available = 16384.000 MB.
DRAM currently available =  128.531 MB.
Maximum ngspice program size =   25.000 MB.
Current ngspice program size =   25.000 MB.

