
Note: Compatibility modes selected: hs a


Circuit: SKY130 library cell oai21_1 A1_to_Y__A2=0,B1=1

option SCALE: Scale is set to 1e-06 for instance and model parameters
Doing analysis at TEMP = -10.960465 and TNOM = 27.000000

Using KLU as Direct Linear Solver
 Reference value :  2.91685e-08
 Reference value :  1.33109e-07
 Reference value :  2.31478e-07
 Reference value :  3.19334e-07
No. of Data Rows : 68032

  Measurements for Transient Analysis

tphl                =  2.31912e-09 targ=  2.80246e-08 trig=  2.57055e-08
tplh                =  6.70373e-09 targ=  1.05820e-07 trig=  9.91165e-08
i_vdd_avg           =  -2.14050e-06 from=  1.00000e-08 to=  3.30004e-07
power_avg_uw        =  3.57006e+00


Total analysis time (seconds) = 0.899701

Total elapsed time (seconds) = 1.066 

Total DRAM available = 16384.000 MB.
DRAM currently available =  130.250 MB.
Maximum ngspice program size =   25.500 MB.
Current ngspice program size =   25.500 MB.

