
Note: Compatibility modes selected: hs a


Circuit: SKY130 library cell aoi21_4 A1_to_Y__A2=1,B1=0

option SCALE: Scale is set to 1e-06 for instance and model parameters
Doing analysis at TEMP = -33.339309 and TNOM = 27.000000

Using KLU as Direct Linear Solver
 Reference value :  8.12640e-09
 Reference value :  3.80599e-08
 Reference value :  6.55549e-08
 Reference value :  9.25449e-08
 Reference value :  1.18787e-07
 Reference value :  1.47352e-07
 Reference value :  1.75907e-07
 Reference value :  2.04165e-07
 Reference value :  2.32125e-07
 Reference value :  2.60535e-07
 Reference value :  2.88787e-07
 Reference value :  3.18837e-07
No. of Data Rows : 68030

  Measurements for Transient Analysis

tphl                =  6.08856e-10 targ=  2.87976e-08 trig=  2.81887e-08
tplh                =  2.37737e-09 targ=  1.08944e-07 trig=  1.06566e-07
i_vdd_avg           =  -1.66466e-06 from=  1.00000e-08 to=  3.30002e-07
power_avg_uw        =  3.04943e+00


Total analysis time (seconds) = 3.07386

Total elapsed time (seconds) = 3.249 

Total DRAM available = 16384.000 MB.
DRAM currently available =  125.516 MB.
Maximum ngspice program size =   24.969 MB.
Current ngspice program size =   24.969 MB.

