
Note: Compatibility modes selected: hs a


Circuit: SKY130 library cell inv_4 A_to_Y

option SCALE: Scale is set to 1e-06 for instance and model parameters
Doing analysis at TEMP = -37.525890 and TNOM = 27.000000

Using KLU as Direct Linear Solver
 Reference value :  4.06383e-08
 Reference value :  1.39919e-07
 Reference value :  2.36733e-07
 Reference value :  3.25474e-07
No. of Data Rows : 68032

  Measurements for Transient Analysis

tphl                =  7.66299e-10 targ=  3.00817e-08 trig=  2.93154e-08
tplh                =  2.89018e-09 targ=  1.12836e-07 trig=  1.09946e-07
i_vdd_avg           =  -1.85063e-06 from=  1.00000e-08 to=  3.30004e-07
power_avg_uw        =  3.24084e+00


Total analysis time (seconds) = 0.895948

Total elapsed time (seconds) = 1.039 

Total DRAM available = 16384.000 MB.
DRAM currently available =  100.828 MB.
Maximum ngspice program size =   26.562 MB.
Current ngspice program size =   26.562 MB.

