
Note: Compatibility modes selected: hs a


Circuit: SKY130 library cell nand2_4 A_to_Y__B=1

option SCALE: Scale is set to 1e-06 for instance and model parameters
Doing analysis at TEMP = 80.530336 and TNOM = 27.000000

Using KLU as Direct Linear Solver
 Reference value :  1.75514e-08
 Reference value :  6.48326e-08
 Reference value :  1.10373e-07
 Reference value :  1.59633e-07
 Reference value :  2.12748e-07
 Reference value :  2.59873e-07
 Reference value :  3.07268e-07
No. of Data Rows : 68032

  Measurements for Transient Analysis

tphl                =  8.03302e-10 targ=  2.67634e-08 trig=  2.59601e-08
tplh                =  1.11795e-09 targ=  1.00998e-07 trig=  9.98802e-08
i_vdd_avg           =  -8.83840e-07 from=  1.00000e-08 to=  3.30003e-07
power_avg_uw        =  1.51826e+00


Total analysis time (seconds) = 1.7888

Total elapsed time (seconds) = 1.946 

Total DRAM available = 16384.000 MB.
DRAM currently available =  145.406 MB.
Maximum ngspice program size =   24.234 MB.
Current ngspice program size =   24.234 MB.

