
Note: Compatibility modes selected: hs a


Circuit: SKY130 library cell nand3_1 A_to_Y__B=1,C=1

option SCALE: Scale is set to 1e-06 for instance and model parameters
Doing analysis at TEMP = 50.465936 and TNOM = 27.000000

Using KLU as Direct Linear Solver
 Reference value :  3.47039e-08
 Reference value :  1.31740e-07
 Reference value :  2.29259e-07
 Reference value :  3.24960e-07
No. of Data Rows : 68030

  Measurements for Transient Analysis

tphl                =  3.62599e-09 targ=  3.27592e-08 trig=  2.91332e-08
tplh                =  4.21191e-09 targ=  1.13612e-07 trig=  1.09400e-07
i_vdd_avg           =  -2.05391e-06 from=  1.00000e-08 to=  3.30000e-07
power_avg_uw        =  3.93687e+00


Total analysis time (seconds) = 0.911502

Total elapsed time (seconds) = 1.080 

Total DRAM available = 16384.000 MB.
DRAM currently available =  176.766 MB.
Maximum ngspice program size =   26.094 MB.
Current ngspice program size =   26.094 MB.

