
Note: Compatibility modes selected: hs a


Circuit: SKY130 library cell aoi21_4 A1_to_Y__A2=1,B1=0

option SCALE: Scale is set to 1e-06 for instance and model parameters
Doing analysis at TEMP = 115.312600 and TNOM = 27.000000

Using KLU as Direct Linear Solver
 Reference value :  8.21140e-09
 Reference value :  3.76239e-08
 Reference value :  6.53489e-08
 Reference value :  9.27189e-08
 Reference value :  1.19960e-07
 Reference value :  1.49960e-07
 Reference value :  1.78245e-07
 Reference value :  2.06134e-07
 Reference value :  2.33659e-07
 Reference value :  2.63149e-07
 Reference value :  2.92375e-07
 Reference value :  3.18760e-07
No. of Data Rows : 68030

  Measurements for Transient Analysis

tphl                =  1.46232e-09 targ=  2.93305e-08 trig=  2.78682e-08
tplh                =  2.13556e-09 targ=  1.07740e-07 trig=  1.05605e-07
i_vdd_avg           =  -2.64254e-06 from=  1.00000e-08 to=  3.30000e-07
power_avg_uw        =  5.03105e+00


Total analysis time (seconds) = 3.04756

Total elapsed time (seconds) = 3.217 

Total DRAM available = 16384.000 MB.
DRAM currently available =  125.766 MB.
Maximum ngspice program size =   27.375 MB.
Current ngspice program size =   27.375 MB.

