
Note: Compatibility modes selected: hs a


Circuit: SKY130 library cell nor2_1 A_to_Y__B=0

option SCALE: Scale is set to 1e-06 for instance and model parameters
Doing analysis at TEMP = 6.444511 and TNOM = 27.000000

Using KLU as Direct Linear Solver
 Reference value :  4.30241e-08
 Reference value :  2.06079e-07
No. of Data Rows : 68030

  Measurements for Transient Analysis

tphl                =  1.15946e-09 targ=  2.89853e-08 trig=  2.78258e-08
tplh                =  3.84472e-09 targ=  1.09322e-07 trig=  1.05477e-07
i_vdd_avg           =  -1.52438e-06 from=  1.00000e-08 to=  3.30001e-07
power_avg_uw        =  2.49084e+00


Total analysis time (seconds) = 0.574792

Total elapsed time (seconds) = 0.735 

Total DRAM available = 16384.000 MB.
DRAM currently available =  131.141 MB.
Maximum ngspice program size =   25.125 MB.
Current ngspice program size =   25.125 MB.

