
Note: Compatibility modes selected: hs a


Circuit: SKY130 library cell xor2_1 A_to_X__B=0

option SCALE: Scale is set to 1e-06 for instance and model parameters
Doing analysis at TEMP = 19.679712 and TNOM = 27.000000

Using KLU as Direct Linear Solver
 Reference value :  2.79561e-08
 Reference value :  9.14011e-08
 Reference value :  1.62010e-07
 Reference value :  2.25956e-07
 Reference value :  2.96365e-07
No. of Data Rows : 68034

  Measurements for Transient Analysis

tplh                =  1.38638e-09 targ=  2.63557e-08 trig=  2.49693e-08
tphl                =  6.65821e-10 targ=  9.75737e-08 trig=  9.69079e-08
i_vdd_avg           =  -1.58580e-06 from=  1.00000e-08 to=  3.30005e-07
power_avg_uw        =  2.82114e+00


Total analysis time (seconds) = 1.28033

Total elapsed time (seconds) = 1.430 

Total DRAM available = 16384.000 MB.
DRAM currently available =  128.406 MB.
Maximum ngspice program size =   25.984 MB.
Current ngspice program size =   25.984 MB.

