
Note: Compatibility modes selected: hs a


Circuit: SKY130 library cell nand3_1 A_to_Y__B=1,C=1

option SCALE: Scale is set to 1e-06 for instance and model parameters
Doing analysis at TEMP = 13.536728 and TNOM = 27.000000

Using KLU as Direct Linear Solver
 Reference value :  3.03425e-08
 Reference value :  1.31815e-07
 Reference value :  2.32454e-07
 Reference value :  3.24550e-07
No. of Data Rows : 68032

  Measurements for Transient Analysis

tphl                =  4.01836e-09 targ=  3.18414e-08 trig=  2.78230e-08
tplh                =  4.73336e-09 targ=  1.10202e-07 trig=  1.05469e-07
i_vdd_avg           =  -1.97639e-06 from=  1.00000e-08 to=  3.30005e-07
power_avg_uw        =  3.31322e+00


Total analysis time (seconds) = 0.964502

Total elapsed time (seconds) = 1.127 

Total DRAM available = 16384.000 MB.
DRAM currently available =  136.828 MB.
Maximum ngspice program size =   27.234 MB.
Current ngspice program size =   27.234 MB.

