
Note: Compatibility modes selected: hs a


Circuit: SKY130 library cell oai21_4 A1_to_Y__A2=0,B1=1

option SCALE: Scale is set to 1e-06 for instance and model parameters
Doing analysis at TEMP = -29.105070 and TNOM = 27.000000

Using KLU as Direct Linear Solver
 Reference value :  5.57640e-09
 Reference value :  3.06325e-08
 Reference value :  5.64447e-08
 Reference value :  8.21347e-08
 Reference value :  1.08425e-07
 Reference value :  1.33902e-07
 Reference value :  1.61677e-07
 Reference value :  1.89138e-07
 Reference value :  2.17485e-07
 Reference value :  2.44915e-07
 Reference value :  2.72362e-07
 Reference value :  3.00307e-07
 Reference value :  3.28597e-07
No. of Data Rows : 68030

  Measurements for Transient Analysis

tphl                =  3.97123e-10 targ=  2.83082e-08 trig=  2.79111e-08
tplh                =  1.55045e-09 targ=  1.07284e-07 trig=  1.05733e-07
i_vdd_avg           =  -1.37445e-07 from=  1.00000e-08 to=  3.30002e-07
power_avg_uw        =  2.41165e-01


Total analysis time (seconds) = 3.25135

Total elapsed time (seconds) = 3.450 

Total DRAM available = 16384.000 MB.
DRAM currently available =  215.953 MB.
Maximum ngspice program size =   26.312 MB.
Current ngspice program size =   26.312 MB.

