
Note: Compatibility modes selected: hs a


Circuit: SKY130 library cell nand3_1 A_to_Y__B=1,C=1

option SCALE: Scale is set to 1e-06 for instance and model parameters
Doing analysis at TEMP = 84.624962 and TNOM = 27.000000

Using KLU as Direct Linear Solver
 Reference value :  3.50863e-08
 Reference value :  1.33040e-07
 Reference value :  2.27701e-07
 Reference value :  3.25900e-07
No. of Data Rows : 68032

  Measurements for Transient Analysis

tphl                =  6.12339e-10 targ=  2.50767e-08 trig=  2.44644e-08
tplh                =  6.32340e-10 targ=  9.60255e-08 trig=  9.53932e-08
i_vdd_avg           =  -6.43440e-07 from=  1.00000e-08 to=  3.30000e-07
power_avg_uw        =  1.12836e+00


Total analysis time (seconds) = 0.892923

Total elapsed time (seconds) = 1.058 

Total DRAM available = 16384.000 MB.
DRAM currently available =  170.062 MB.
Maximum ngspice program size =   24.891 MB.
Current ngspice program size =   24.891 MB.

