
Note: Compatibility modes selected: hs a


Circuit: SKY130 library cell inv_1 A_to_Y

option SCALE: Scale is set to 1e-06 for instance and model parameters
Doing analysis at TEMP = 40.713454 and TNOM = 27.000000

Using KLU as Direct Linear Solver
 Reference value :  9.95238e-08
No. of Data Rows : 68030

  Measurements for Transient Analysis

tphl                =  5.61216e-10 targ=  2.77543e-08 trig=  2.71931e-08
tplh                =  1.88519e-09 targ=  1.05465e-07 trig=  1.03579e-07
i_vdd_avg           =  -1.28556e-06 from=  1.00000e-08 to=  3.30000e-07
power_avg_uw        =  2.33556e+00


Total analysis time (seconds) = 0.317911

Total elapsed time (seconds) = 0.471 

Total DRAM available = 16384.000 MB.
DRAM currently available =  203.391 MB.
Maximum ngspice program size =   23.656 MB.
Current ngspice program size =   23.656 MB.

