
Note: Compatibility modes selected: hs a


Circuit: SKY130 library cell xor2_1 A_to_X__B=0

option SCALE: Scale is set to 1e-06 for instance and model parameters
Doing analysis at TEMP = 0.671142 and TNOM = 27.000000

Using KLU as Direct Linear Solver
 Reference value :  1.94614e-08
 Reference value :  8.54005e-08
 Reference value :  1.48013e-07
 Reference value :  2.12760e-07
 Reference value :  2.79868e-07
No. of Data Rows : 68034

  Measurements for Transient Analysis

tplh                =  6.15486e-10 targ=  3.03545e-08 trig=  2.97390e-08
tphl                =  1.77606e-09 targ=  1.12993e-07 trig=  1.11217e-07
i_vdd_avg           =  -2.32038e-06 from=  1.00000e-08 to=  3.30003e-07
power_avg_uw        =  4.41040e+00


Total analysis time (seconds) = 1.29761

Total elapsed time (seconds) = 1.467 

Total DRAM available = 16384.000 MB.
DRAM currently available =  152.172 MB.
Maximum ngspice program size =   28.438 MB.
Current ngspice program size =   28.438 MB.

