
Note: Compatibility modes selected: hs a


Circuit: SKY130 library cell nand2_4 A_to_Y__B=1

option SCALE: Scale is set to 1e-06 for instance and model parameters
Doing analysis at TEMP = -38.994824 and TNOM = 27.000000

Using KLU as Direct Linear Solver
 Reference value :  1.31614e-08
 Reference value :  6.28865e-08
 Reference value :  1.11135e-07
 Reference value :  1.58660e-07
 Reference value :  2.04076e-07
 Reference value :  2.51431e-07
 Reference value :  2.97450e-07
No. of Data Rows : 68032

  Measurements for Transient Analysis

tphl                =  9.53483e-11 targ=  2.43398e-08 trig=  2.42445e-08
tplh                =  1.79005e-10 targ=  9.49125e-08 trig=  9.47335e-08
i_vdd_avg           =  -1.34078e-07 from=  1.00000e-08 to=  3.30000e-07
power_avg_uw        =  2.45220e-01


Total analysis time (seconds) = 1.85181

Total elapsed time (seconds) = 2.013 

Total DRAM available = 16384.000 MB.
DRAM currently available =  117.547 MB.
Maximum ngspice program size =   27.031 MB.
Current ngspice program size =   27.031 MB.

