
Note: Compatibility modes selected: hs a


Circuit: SKY130 library cell mux2_1 A0_to_X__A1=0,S=0

option SCALE: Scale is set to 1e-06 for instance and model parameters
Doing analysis at TEMP = -14.905594 and TNOM = 27.000000

Using KLU as Direct Linear Solver
 Reference value :  1.81364e-08
 Reference value :  7.01380e-08
 Reference value :  1.23263e-07
 Reference value :  1.72098e-07
 Reference value :  2.23583e-07
 Reference value :  2.76783e-07
 Reference value :  3.31013e-07
No. of Data Rows : 68032

  Measurements for Transient Analysis

tplh                =  1.61226e-09 targ=  2.93700e-08 trig=  2.77577e-08
tphl                =  2.39096e-09 targ=  1.07664e-07 trig=  1.05273e-07
i_vdd_avg           =  -9.60993e-07 from=  1.00000e-08 to=  3.30003e-07
power_avg_uw        =  1.68897e+00


Total analysis time (seconds) = 1.69745

Total elapsed time (seconds) = 1.854 

Total DRAM available = 16384.000 MB.
DRAM currently available =  116.766 MB.
Maximum ngspice program size =   24.141 MB.
Current ngspice program size =   24.141 MB.

