
Note: Compatibility modes selected: hs a


Circuit: SKY130 library cell nor2_1 A_to_Y__B=0

option SCALE: Scale is set to 1e-06 for instance and model parameters
Doing analysis at TEMP = 59.409658 and TNOM = 27.000000

Using KLU as Direct Linear Solver
 Reference value :  4.81475e-08
 Reference value :  2.08213e-07
No. of Data Rows : 68032

  Measurements for Transient Analysis

tphl                =  6.36248e-10 targ=  2.55638e-08 trig=  2.49275e-08
tplh                =  1.68374e-09 targ=  9.84663e-08 trig=  9.67826e-08
i_vdd_avg           =  -1.86900e-06 from=  1.00000e-08 to=  3.30003e-07
power_avg_uw        =  3.58126e+00


Total analysis time (seconds) = 0.572034

Total elapsed time (seconds) = 0.717 

Total DRAM available = 16384.000 MB.
DRAM currently available =  106.812 MB.
Maximum ngspice program size =   26.531 MB.
Current ngspice program size =   26.531 MB.

