
Note: Compatibility modes selected: hs a


Circuit: SKY130 library cell nor2_4 A_to_Y__B=0

option SCALE: Scale is set to 1e-06 for instance and model parameters
Doing analysis at TEMP = 42.766851 and TNOM = 27.000000

Using KLU as Direct Linear Solver
 Reference value :  1.33514e-08
 Reference value :  5.73596e-08
 Reference value :  1.02045e-07
 Reference value :  1.46842e-07
 Reference value :  1.89348e-07
 Reference value :  2.35740e-07
 Reference value :  2.79467e-07
 Reference value :  3.22897e-07
No. of Data Rows : 68030

  Measurements for Transient Analysis

tphl                =  5.95941e-10 targ=  2.73170e-08 trig=  2.67210e-08
tplh                =  1.35797e-09 targ=  1.03521e-07 trig=  1.02163e-07
i_vdd_avg           =  -4.74782e-07 from=  1.00000e-08 to=  3.30002e-07
power_avg_uw        =  8.13210e-01


Total analysis time (seconds) = 1.96378

Total elapsed time (seconds) = 2.126 

Total DRAM available = 16384.000 MB.
DRAM currently available =  167.438 MB.
Maximum ngspice program size =   27.016 MB.
Current ngspice program size =   27.016 MB.

