
Note: Compatibility modes selected: hs a


Circuit: SKY130 library cell oai21_4 A1_to_Y__A2=0,B1=1

option SCALE: Scale is set to 1e-06 for instance and model parameters
Doing analysis at TEMP = 25.836803 and TNOM = 27.000000

Using KLU as Direct Linear Solver
 Reference value :  8.87640e-09
 Reference value :  3.70569e-08
 Reference value :  6.42619e-08
 Reference value :  9.21719e-08
 Reference value :  1.20726e-07
 Reference value :  1.49201e-07
 Reference value :  1.77521e-07
 Reference value :  2.04252e-07
 Reference value :  2.31307e-07
 Reference value :  2.60742e-07
 Reference value :  2.88111e-07
 Reference value :  3.15781e-07
No. of Data Rows : 68032

  Measurements for Transient Analysis

tphl                =  2.76873e-10 targ=  2.68591e-08 trig=  2.65822e-08
tplh                =  1.09219e-09 targ=  1.02839e-07 trig=  1.01747e-07
i_vdd_avg           =  -5.70045e-07 from=  1.00000e-08 to=  3.30001e-07
power_avg_uw        =  9.91048e-01


Total analysis time (seconds) = 3.1443

Total elapsed time (seconds) = 3.316 

Total DRAM available = 16384.000 MB.
DRAM currently available =  215.891 MB.
Maximum ngspice program size =   27.266 MB.
Current ngspice program size =   27.266 MB.

