
Note: Compatibility modes selected: hs a


Circuit: SKY130 library cell inv_1 A_to_Y

option SCALE: Scale is set to 1e-06 for instance and model parameters
Doing analysis at TEMP = 103.057080 and TNOM = 27.000000

Using KLU as Direct Linear Solver
 Reference value :  1.06076e-07
No. of Data Rows : 68030

  Measurements for Transient Analysis

tphl                =  5.60255e-10 targ=  2.58410e-08 trig=  2.52808e-08
tplh                =  9.78007e-10 targ=  9.88203e-08 trig=  9.78423e-08
i_vdd_avg           =  -6.68065e-07 from=  1.00000e-08 to=  3.30001e-07
power_avg_uw        =  1.20665e+00


Total analysis time (seconds) = 0.319398

Total elapsed time (seconds) = 0.472 

Total DRAM available = 16384.000 MB.
DRAM currently available =  132.047 MB.
Maximum ngspice program size =   27.375 MB.
Current ngspice program size =   27.375 MB.

