
Note: Compatibility modes selected: hs a


Circuit: SKY130 library cell inv_4 A_to_Y

option SCALE: Scale is set to 1e-06 for instance and model parameters
Doing analysis at TEMP = 48.052658 and TNOM = 27.000000

Using KLU as Direct Linear Solver
 Reference value :  3.66597e-08
 Reference value :  1.30897e-07
 Reference value :  2.27255e-07
 Reference value :  3.27962e-07
No. of Data Rows : 68030

  Measurements for Transient Analysis

tphl                =  -1.38324e-10 targ=  2.75603e-08 trig=  2.76986e-08
tplh                =  1.06303e-09 targ=  1.06159e-07 trig=  1.05096e-07
i_vdd_avg           =  -1.44724e-06 from=  1.00000e-08 to=  3.30002e-07
power_avg_uw        =  2.46714e+00


Total analysis time (seconds) = 0.896503

Total elapsed time (seconds) = 1.041 

Total DRAM available = 16384.000 MB.
DRAM currently available =  103.812 MB.
Maximum ngspice program size =   25.000 MB.
Current ngspice program size =   25.000 MB.

