
Note: Compatibility modes selected: hs a


Circuit: SKY130 library cell oai21_4 A1_to_Y__A2=0,B1=1

option SCALE: Scale is set to 1e-06 for instance and model parameters
Doing analysis at TEMP = -4.306196 and TNOM = 27.000000

Using KLU as Direct Linear Solver
 Reference value :  7.91640e-09
 Reference value :  3.43157e-08
 Reference value :  5.90857e-08
 Reference value :  8.28907e-08
 Reference value :  1.06959e-07
 Reference value :  1.32724e-07
 Reference value :  1.58034e-07
 Reference value :  1.84388e-07
 Reference value :  2.09626e-07
 Reference value :  2.33406e-07
 Reference value :  2.58231e-07
 Reference value :  2.82464e-07
 Reference value :  3.07944e-07
 Reference value :  3.34139e-07
No. of Data Rows : 68034

  Measurements for Transient Analysis

tphl                =  3.03306e-10 targ=  2.74524e-08 trig=  2.71491e-08
tplh                =  1.77204e-09 targ=  1.05219e-07 trig=  1.03447e-07
i_vdd_avg           =  -2.79567e-06 from=  1.00000e-08 to=  3.30004e-07
power_avg_uw        =  5.18981e+00


Total analysis time (seconds) = 3.84384

Total elapsed time (seconds) = 4.016 

Total DRAM available = 16384.000 MB.
DRAM currently available =  205.094 MB.
Maximum ngspice program size =   26.594 MB.
Current ngspice program size =   26.594 MB.

