
Note: Compatibility modes selected: hs a


Circuit: SKY130 library cell oai21_4 A1_to_Y__A2=0,B1=1

option SCALE: Scale is set to 1e-06 for instance and model parameters
Doing analysis at TEMP = 48.700141 and TNOM = 27.000000

Using KLU as Direct Linear Solver
 Reference value :  8.20140e-09
 Reference value :  3.58293e-08
 Reference value :  6.44243e-08
 Reference value :  9.15593e-08
 Reference value :  1.18916e-07
 Reference value :  1.44466e-07
 Reference value :  1.70241e-07
 Reference value :  1.96004e-07
 Reference value :  2.24804e-07
 Reference value :  2.53024e-07
 Reference value :  2.80041e-07
 Reference value :  3.08796e-07
 Reference value :  3.34636e-07
No. of Data Rows : 68030

  Measurements for Transient Analysis

tphl                =  1.12041e-09 targ=  2.88413e-08 trig=  2.77209e-08
tplh                =  2.21673e-09 targ=  1.07379e-07 trig=  1.05163e-07
i_vdd_avg           =  -1.87353e-06 from=  1.00000e-08 to=  3.30001e-07
power_avg_uw        =  3.52288e+00


Total analysis time (seconds) = 3.28177

Total elapsed time (seconds) = 3.465 

Total DRAM available = 16384.000 MB.
DRAM currently available =  121.891 MB.
Maximum ngspice program size =   26.625 MB.
Current ngspice program size =   26.625 MB.

