
Note: Compatibility modes selected: hs a


Circuit: SKY130 library cell mux2_4 A0_to_X__A1=0,S=0

option SCALE: Scale is set to 1e-06 for instance and model parameters
Doing analysis at TEMP = 26.186927 and TNOM = 27.000000

Using KLU as Direct Linear Solver
 Reference value :  1.08614e-08
 Reference value :  4.77491e-08
 Reference value :  8.57191e-08
 Reference value :  1.21211e-07
 Reference value :  1.59776e-07
 Reference value :  1.96969e-07
 Reference value :  2.32229e-07
 Reference value :  2.69146e-07
 Reference value :  3.03736e-07
 Reference value :  3.36331e-07
No. of Data Rows : 68030

  Measurements for Transient Analysis

tplh                =  1.32400e-10 targ=  2.70132e-08 trig=  2.68808e-08
tphl                =  1.08012e-09 targ=  1.03722e-07 trig=  1.02642e-07
i_vdd_avg           =  -1.91050e-06 from=  1.00000e-08 to=  3.30001e-07
power_avg_uw        =  3.48304e+00


Total analysis time (seconds) = 2.39508

Total elapsed time (seconds) = 2.570 

Total DRAM available = 16384.000 MB.
DRAM currently available =  214.609 MB.
Maximum ngspice program size =   28.578 MB.
Current ngspice program size =   28.578 MB.

