
Note: Compatibility modes selected: hs a


Circuit: SKY130 library cell nand2_1 A_to_Y__B=1

option SCALE: Scale is set to 1e-06 for instance and model parameters
Doing analysis at TEMP = -34.162467 and TNOM = 27.000000

Using KLU as Direct Linear Solver
 Reference value :  6.92112e-08
 Reference value :  2.32256e-07
No. of Data Rows : 68034

  Measurements for Transient Analysis

tphl                =  1.08555e-09 targ=  2.61499e-08 trig=  2.50644e-08
tplh                =  1.68503e-09 targ=  9.88781e-08 trig=  9.71931e-08
i_vdd_avg           =  -1.47933e-06 from=  1.00000e-08 to=  3.30005e-07
power_avg_uw        =  2.89902e+00


Total analysis time (seconds) = 0.528051

Total elapsed time (seconds) = 0.653 

Total DRAM available = 16384.000 MB.
DRAM currently available =  101.219 MB.
Maximum ngspice program size =   25.438 MB.
Current ngspice program size =   25.438 MB.

