
Note: Compatibility modes selected: hs a


Circuit: SKY130 library cell aoi21_4 A1_to_Y__A2=1,B1=0

option SCALE: Scale is set to 1e-06 for instance and model parameters
Doing analysis at TEMP = 90.938082 and TNOM = 27.000000

Using KLU as Direct Linear Solver
 Reference value :  8.17640e-09
 Reference value :  3.52129e-08
 Reference value :  6.30179e-08
 Reference value :  9.10129e-08
 Reference value :  1.20508e-07
 Reference value :  1.49588e-07
 Reference value :  1.77593e-07
 Reference value :  2.06858e-07
 Reference value :  2.34193e-07
 Reference value :  2.64303e-07
 Reference value :  2.92788e-07
 Reference value :  3.20608e-07
No. of Data Rows : 68032

  Measurements for Transient Analysis

tphl                =  3.75934e-10 targ=  2.90536e-08 trig=  2.86777e-08
tplh                =  1.75692e-09 targ=  1.09790e-07 trig=  1.08033e-07
i_vdd_avg           =  -2.16626e-06 from=  1.00000e-08 to=  3.30003e-07
power_avg_uw        =  3.53063e+00


Total analysis time (seconds) = 3.05542

Total elapsed time (seconds) = 3.223 

Total DRAM available = 16384.000 MB.
DRAM currently available =  142.641 MB.
Maximum ngspice program size =   26.484 MB.
Current ngspice program size =   26.484 MB.

