
Note: Compatibility modes selected: hs a


Circuit: SKY130 library cell mux2_4 A0_to_X__A1=0,S=0

option SCALE: Scale is set to 1e-06 for instance and model parameters
Doing analysis at TEMP = 123.429720 and TNOM = 27.000000

Using KLU as Direct Linear Solver
 Reference value :  1.20714e-08
 Reference value :  4.90525e-08
 Reference value :  8.66225e-08
 Reference value :  1.21322e-07
 Reference value :  1.57132e-07
 Reference value :  1.94587e-07
 Reference value :  2.31177e-07
 Reference value :  2.68327e-07
 Reference value :  3.05367e-07
No. of Data Rows : 68032

  Measurements for Transient Analysis

tplh                =  4.95508e-10 targ=  2.86155e-08 trig=  2.81200e-08
tphl                =  1.16250e-09 targ=  1.07522e-07 trig=  1.06360e-07
i_vdd_avg           =  -4.02793e-07 from=  1.00000e-08 to=  3.30002e-07
power_avg_uw        =  6.58812e-01


Total analysis time (seconds) = 2.37563

Total elapsed time (seconds) = 2.543 

Total DRAM available = 16384.000 MB.
DRAM currently available =  172.859 MB.
Maximum ngspice program size =   29.031 MB.
Current ngspice program size =   29.031 MB.

