
Note: Compatibility modes selected: hs a


Circuit: SKY130 library cell nor2_4 A_to_Y__B=0

option SCALE: Scale is set to 1e-06 for instance and model parameters
Doing analysis at TEMP = 117.538650 and TNOM = 27.000000

Using KLU as Direct Linear Solver
 Reference value :  1.33164e-08
 Reference value :  5.63538e-08
 Reference value :  9.83488e-08
 Reference value :  1.43760e-07
 Reference value :  1.87083e-07
 Reference value :  2.35954e-07
 Reference value :  2.81100e-07
 Reference value :  3.25175e-07
No. of Data Rows : 68030

  Measurements for Transient Analysis

tphl                =  -5.28540e-11 targ=  2.96728e-08 trig=  2.97256e-08
tplh                =  1.86351e-09 targ=  1.13040e-07 trig=  1.11177e-07
i_vdd_avg           =  -5.22610e-06 from=  1.00000e-08 to=  3.30000e-07
power_avg_uw        =  9.69822e+00


Total analysis time (seconds) = 1.96778

Total elapsed time (seconds) = 2.138 

Total DRAM available = 16384.000 MB.
DRAM currently available =  167.438 MB.
Maximum ngspice program size =   27.203 MB.
Current ngspice program size =   27.203 MB.

