
Note: Compatibility modes selected: hs a


Circuit: SKY130 library cell xor2_1 A_to_X__B=0

option SCALE: Scale is set to 1e-06 for instance and model parameters
Doing analysis at TEMP = 88.527949 and TNOM = 27.000000

Using KLU as Direct Linear Solver
 Reference value :  2.42075e-08
 Reference value :  8.92397e-08
 Reference value :  1.57117e-07
 Reference value :  2.24045e-07
 Reference value :  2.89707e-07
No. of Data Rows : 68030

  Measurements for Transient Analysis

tplh                =  2.14601e-10 targ=  2.64807e-08 trig=  2.62661e-08
tphl                =  7.01815e-10 targ=  1.01500e-07 trig=  1.00798e-07
i_vdd_avg           =  -1.13766e-06 from=  1.00000e-08 to=  3.30002e-07
power_avg_uw        =  2.22204e+00


Total analysis time (seconds) = 1.30286

Total elapsed time (seconds) = 1.465 

Total DRAM available = 16384.000 MB.
DRAM currently available =  115.953 MB.
Maximum ngspice program size =   25.953 MB.
Current ngspice program size =   25.953 MB.

