
Note: Compatibility modes selected: hs a


Circuit: SKY130 library cell nand3_4 A_to_Y__B=1,C=1

option SCALE: Scale is set to 1e-06 for instance and model parameters
Doing analysis at TEMP = 46.681644 and TNOM = 27.000000

Using KLU as Direct Linear Solver
 Reference value :  7.55140e-09
 Reference value :  3.57112e-08
 Reference value :  6.43262e-08
 Reference value :  9.03962e-08
 Reference value :  1.19105e-07
 Reference value :  1.46860e-07
 Reference value :  1.74440e-07
 Reference value :  2.02231e-07
 Reference value :  2.30816e-07
 Reference value :  2.59965e-07
 Reference value :  2.88070e-07
 Reference value :  3.16530e-07
No. of Data Rows : 68034

  Measurements for Transient Analysis

tphl                =  1.96599e-10 targ=  2.51385e-08 trig=  2.49419e-08
tplh                =  4.45047e-10 targ=  9.72706e-08 trig=  9.68256e-08
i_vdd_avg           =  -1.44961e-06 from=  1.00000e-08 to=  3.30005e-07
power_avg_uw        =  2.82502e+00


Total analysis time (seconds) = 3.05847

Total elapsed time (seconds) = 3.231 

Total DRAM available = 16384.000 MB.
DRAM currently available =  174.391 MB.
Maximum ngspice program size =   26.688 MB.
Current ngspice program size =   26.688 MB.

