
Note: Compatibility modes selected: hs a


Circuit: SKY130 library cell aoi21_1 A1_to_Y__A2=1,B1=0

option SCALE: Scale is set to 1e-06 for instance and model parameters
Doing analysis at TEMP = 41.902190 and TNOM = 27.000000

Using KLU as Direct Linear Solver
 Reference value :  3.47556e-08
 Reference value :  1.34694e-07
 Reference value :  2.33401e-07
 Reference value :  3.28209e-07
No. of Data Rows : 68034

  Measurements for Transient Analysis

tphl                =  1.40886e-10 targ=  2.78524e-08 trig=  2.77116e-08
tplh                =  1.49004e-09 targ=  1.06625e-07 trig=  1.05135e-07
i_vdd_avg           =  -4.13840e-07 from=  1.00000e-08 to=  3.30004e-07
power_avg_uw        =  7.10527e-01


Total analysis time (seconds) = 0.873339

Total elapsed time (seconds) = 1.033 

Total DRAM available = 16384.000 MB.
DRAM currently available =  150.328 MB.
Maximum ngspice program size =   25.406 MB.
Current ngspice program size =   25.406 MB.

