
Note: Compatibility modes selected: hs a


Circuit: SKY130 library cell nand3_4 A_to_Y__B=1,C=1

option SCALE: Scale is set to 1e-06 for instance and model parameters
Doing analysis at TEMP = -13.989229 and TNOM = 27.000000

Using KLU as Direct Linear Solver
 Reference value :  7.50140e-09
 Reference value :  3.55143e-08
 Reference value :  6.19293e-08
 Reference value :  8.96393e-08
 Reference value :  1.18116e-07
 Reference value :  1.45891e-07
 Reference value :  1.73751e-07
 Reference value :  2.02749e-07
 Reference value :  2.30989e-07
 Reference value :  2.58774e-07
 Reference value :  2.85921e-07
 Reference value :  3.13916e-07
No. of Data Rows : 68030

  Measurements for Transient Analysis

tphl                =  1.55715e-09 targ=  2.98781e-08 trig=  2.83209e-08
tplh                =  2.63301e-09 targ=  1.09596e-07 trig=  1.06963e-07
i_vdd_avg           =  -2.50398e-06 from=  1.00000e-08 to=  3.30001e-07
power_avg_uw        =  4.83129e+00


Total analysis time (seconds) = 3.0781

Total elapsed time (seconds) = 3.251 

Total DRAM available = 16384.000 MB.
DRAM currently available =  125.078 MB.
Maximum ngspice program size =   29.578 MB.
Current ngspice program size =   29.578 MB.

