
Note: Compatibility modes selected: hs a


Circuit: SKY130 library cell nand3_4 A_to_Y__B=1,C=1

option SCALE: Scale is set to 1e-06 for instance and model parameters
Doing analysis at TEMP = 107.551170 and TNOM = 27.000000

Using KLU as Direct Linear Solver
 Reference value :  8.51640e-09
 Reference value :  3.76109e-08
 Reference value :  6.46859e-08
 Reference value :  9.19359e-08
 Reference value :  1.19539e-07
 Reference value :  1.48009e-07
 Reference value :  1.76299e-07
 Reference value :  2.03281e-07
 Reference value :  2.31091e-07
 Reference value :  2.59481e-07
 Reference value :  2.88049e-07
 Reference value :  3.23699e-07
No. of Data Rows : 68034

  Measurements for Transient Analysis

tphl                =  1.32275e-09 targ=  2.92094e-08 trig=  2.78867e-08
tplh                =  1.55231e-09 targ=  1.07212e-07 trig=  1.05660e-07
i_vdd_avg           =  -2.19907e-06 from=  1.00000e-08 to=  3.30004e-07
power_avg_uw        =  4.33205e+00


Total analysis time (seconds) = 2.94468

Total elapsed time (seconds) = 3.118 

Total DRAM available = 16384.000 MB.
DRAM currently available =  131.781 MB.
Maximum ngspice program size =   27.422 MB.
Current ngspice program size =   27.422 MB.

