
Note: Compatibility modes selected: hs a


Circuit: SKY130 library cell xor2_1 A_to_X__B=0

option SCALE: Scale is set to 1e-06 for instance and model parameters
Doing analysis at TEMP = -33.875659 and TNOM = 27.000000

Using KLU as Direct Linear Solver
 Reference value :  2.19614e-08
 Reference value :  8.94007e-08
 Reference value :  1.58639e-07
 Reference value :  2.25386e-07
 Reference value :  2.92944e-07
No. of Data Rows : 68034

  Measurements for Transient Analysis

tplh                =  5.04624e-10 targ=  2.86212e-08 trig=  2.81166e-08
tphl                =  1.43699e-09 targ=  1.07787e-07 trig=  1.06350e-07
i_vdd_avg           =  -7.26172e-07 from=  1.00000e-08 to=  3.30004e-07
power_avg_uw        =  1.20395e+00


Total analysis time (seconds) = 1.28702

Total elapsed time (seconds) = 1.444 

Total DRAM available = 16384.000 MB.
DRAM currently available =  166.766 MB.
Maximum ngspice program size =   24.422 MB.
Current ngspice program size =   24.422 MB.

