
Note: Compatibility modes selected: hs a


Circuit: SKY130 library cell nor2_1 A_to_Y__B=0

option SCALE: Scale is set to 1e-06 for instance and model parameters
Doing analysis at TEMP = 30.575730 and TNOM = 27.000000

Using KLU as Direct Linear Solver
 Reference value :  5.15419e-08
 Reference value :  1.88248e-07
No. of Data Rows : 68032

  Measurements for Transient Analysis

tphl                =  6.84476e-10 targ=  2.90642e-08 trig=  2.83797e-08
tplh                =  3.06347e-09 targ=  1.10203e-07 trig=  1.07139e-07
i_vdd_avg           =  -2.31789e-06 from=  1.00000e-08 to=  3.30001e-07
power_avg_uw        =  4.58725e+00


Total analysis time (seconds) = 0.580713

Total elapsed time (seconds) = 0.728 

Total DRAM available = 16384.000 MB.
DRAM currently available =  117.547 MB.
Maximum ngspice program size =   26.688 MB.
Current ngspice program size =   26.688 MB.

