
Note: Compatibility modes selected: hs a


Circuit: SKY130 library cell mux2_4 A0_to_X__A1=0,S=0

option SCALE: Scale is set to 1e-06 for instance and model parameters
Doing analysis at TEMP = 14.680337 and TNOM = 27.000000

Using KLU as Direct Linear Solver
 Reference value :  9.56140e-09
 Reference value :  4.47913e-08
 Reference value :  7.77913e-08
 Reference value :  1.12850e-07
 Reference value :  1.47035e-07
 Reference value :  1.83130e-07
 Reference value :  2.18361e-07
 Reference value :  2.54606e-07
 Reference value :  2.91105e-07
 Reference value :  3.27175e-07
No. of Data Rows : 68032

  Measurements for Transient Analysis

tplh                =  4.80958e-10 targ=  2.88153e-08 trig=  2.83344e-08
tphl                =  1.65959e-09 targ=  1.08663e-07 trig=  1.07003e-07
i_vdd_avg           =  -1.49467e-06 from=  1.00000e-08 to=  3.30000e-07
power_avg_uw        =  2.68201e+00


Total analysis time (seconds) = 2.46628

Total elapsed time (seconds) = 2.638 

Total DRAM available = 16384.000 MB.
DRAM currently available =  161.641 MB.
Maximum ngspice program size =   24.328 MB.
Current ngspice program size =   24.328 MB.

