
Note: Compatibility modes selected: hs a


Circuit: SKY130 library cell mux2_1 A0_to_X__A1=0,S=0

option SCALE: Scale is set to 1e-06 for instance and model parameters
Doing analysis at TEMP = -4.180359 and TNOM = 27.000000

Using KLU as Direct Linear Solver
 Reference value :  1.48714e-08
 Reference value :  6.37974e-08
 Reference value :  1.14642e-07
 Reference value :  1.65787e-07
 Reference value :  2.16802e-07
 Reference value :  2.71597e-07
 Reference value :  3.23687e-07
No. of Data Rows : 68032

  Measurements for Transient Analysis

tplh                =  6.12236e-10 targ=  2.52147e-08 trig=  2.46025e-08
tphl                =  6.40143e-10 targ=  9.64475e-08 trig=  9.58074e-08
i_vdd_avg           =  -9.49576e-07 from=  1.00000e-08 to=  3.30002e-07
power_avg_uw        =  1.80005e+00


Total analysis time (seconds) = 1.71608

Total elapsed time (seconds) = 1.907 

Total DRAM available = 16384.000 MB.
DRAM currently available =  138.969 MB.
Maximum ngspice program size =   27.141 MB.
Current ngspice program size =   27.141 MB.

