
Note: Compatibility modes selected: hs a


Circuit: SKY130 library cell mux2_1 A0_to_X__A1=0,S=0

option SCALE: Scale is set to 1e-06 for instance and model parameters
Doing analysis at TEMP = 54.050779 and TNOM = 27.000000

Using KLU as Direct Linear Solver
 Reference value :  1.38364e-08
 Reference value :  6.39398e-08
 Reference value :  1.19002e-07
 Reference value :  1.73177e-07
 Reference value :  2.28485e-07
 Reference value :  2.78902e-07
 Reference value :  3.32062e-07
No. of Data Rows : 68030

  Measurements for Transient Analysis

tplh                =  -7.71936e-11 targ=  2.92765e-08 trig=  2.93537e-08
tphl                =  1.51003e-09 targ=  1.11571e-07 trig=  1.10061e-07
i_vdd_avg           =  -9.38963e-07 from=  1.00000e-08 to=  3.30002e-07
power_avg_uw        =  1.69242e+00


Total analysis time (seconds) = 1.62988

Total elapsed time (seconds) = 1.824 

Total DRAM available = 16384.000 MB.
DRAM currently available =  117.859 MB.
Maximum ngspice program size =   27.281 MB.
Current ngspice program size =   27.281 MB.

