
Note: Compatibility modes selected: hs a


Circuit: SKY130 library cell mux2_4 A0_to_X__A1=0,S=0

option SCALE: Scale is set to 1e-06 for instance and model parameters
Doing analysis at TEMP = -8.896047 and TNOM = 27.000000

Using KLU as Direct Linear Solver
 Reference value :  9.23640e-09
 Reference value :  4.60055e-08
 Reference value :  8.26855e-08
 Reference value :  1.18093e-07
 Reference value :  1.56038e-07
 Reference value :  1.92175e-07
 Reference value :  2.26675e-07
 Reference value :  2.65243e-07
 Reference value :  3.00283e-07
 Reference value :  3.35648e-07
No. of Data Rows : 68034

  Measurements for Transient Analysis

tplh                =  3.91435e-10 targ=  2.52354e-08 trig=  2.48440e-08
tphl                =  6.85537e-10 targ=  9.72175e-08 trig=  9.65320e-08
i_vdd_avg           =  -1.06316e-06 from=  1.00000e-08 to=  3.30003e-07
power_avg_uw        =  1.94899e+00


Total analysis time (seconds) = 2.39606

Total elapsed time (seconds) = 2.573 

Total DRAM available = 16384.000 MB.
DRAM currently available =  168.266 MB.
Maximum ngspice program size =   27.656 MB.
Current ngspice program size =   27.656 MB.

