
Note: Compatibility modes selected: hs a


Circuit: SKY130 library cell nor2_1 A_to_Y__B=0

option SCALE: Scale is set to 1e-06 for instance and model parameters
Doing analysis at TEMP = 91.724015 and TNOM = 27.000000

Using KLU as Direct Linear Solver
 Reference value :  5.77239e-08
 Reference value :  1.97604e-07
No. of Data Rows : 68030

  Measurements for Transient Analysis

tphl                =  1.53164e-09 targ=  2.72549e-08 trig=  2.57232e-08
tplh                =  3.51649e-09 targ=  1.02686e-07 trig=  9.91696e-08
i_vdd_avg           =  -2.25020e-06 from=  1.00000e-08 to=  3.30000e-07
power_avg_uw        =  4.39210e+00


Total analysis time (seconds) = 0.605807

Total elapsed time (seconds) = 0.760 

Total DRAM available = 16384.000 MB.
DRAM currently available =   98.688 MB.
Maximum ngspice program size =   25.078 MB.
Current ngspice program size =   25.078 MB.

