
Note: Compatibility modes selected: hs a


Circuit: SKY130 library cell mux2_4 A0_to_X__A1=0,S=0

option SCALE: Scale is set to 1e-06 for instance and model parameters
Doing analysis at TEMP = 4.826973 and TNOM = 27.000000

Using KLU as Direct Linear Solver
 Reference value :  1.15414e-08
 Reference value :  4.69098e-08
 Reference value :  8.30098e-08
 Reference value :  1.18752e-07
 Reference value :  1.57302e-07
 Reference value :  1.93045e-07
 Reference value :  2.27220e-07
 Reference value :  2.60900e-07
 Reference value :  2.98182e-07
 Reference value :  3.32927e-07
No. of Data Rows : 68030

  Measurements for Transient Analysis

tplh                =  2.05125e-10 targ=  2.67813e-08 trig=  2.65761e-08
tphl                =  1.07218e-09 targ=  1.02801e-07 trig=  1.01728e-07
i_vdd_avg           =  -2.15948e-06 from=  1.00000e-08 to=  3.30002e-07
power_avg_uw        =  3.91044e+00


Total analysis time (seconds) = 2.42545

Total elapsed time (seconds) = 2.589 

Total DRAM available = 16384.000 MB.
DRAM currently available =  219.922 MB.
Maximum ngspice program size =   26.906 MB.
Current ngspice program size =   26.906 MB.

