
Note: Compatibility modes selected: hs a


Circuit: SKY130 library cell nand3_1 A_to_Y__B=1,C=1

option SCALE: Scale is set to 1e-06 for instance and model parameters
Doing analysis at TEMP = 27.157564 and TNOM = 27.000000

Using KLU as Direct Linear Solver
 Reference value :  2.96675e-08
 Reference value :  1.20501e-07
 Reference value :  2.22007e-07
 Reference value :  3.20136e-07
No. of Data Rows : 68032

  Measurements for Transient Analysis

tphl                =  -2.38733e-10 targ=  2.80710e-08 trig=  2.83097e-08
tplh                =  1.01451e-09 targ=  1.07944e-07 trig=  1.06929e-07
i_vdd_avg           =  -3.90771e-07 from=  1.00000e-08 to=  3.30001e-07
power_avg_uw        =  7.01241e-01


Total analysis time (seconds) = 0.910506

Total elapsed time (seconds) = 1.093 

Total DRAM available = 16384.000 MB.
DRAM currently available =  164.547 MB.
Maximum ngspice program size =   26.531 MB.
Current ngspice program size =   26.531 MB.

