
Note: Compatibility modes selected: hs a


Circuit: SKY130 library cell mux2_1 A0_to_X__A1=0,S=0

option SCALE: Scale is set to 1e-06 for instance and model parameters
Doing analysis at TEMP = -29.476698 and TNOM = 27.000000

Using KLU as Direct Linear Solver
 Reference value :  1.92014e-08
 Reference value :  6.87122e-08
 Reference value :  1.22532e-07
 Reference value :  1.77942e-07
 Reference value :  2.29222e-07
 Reference value :  2.82482e-07
 Reference value :  3.39977e-07
No. of Data Rows : 68032

  Measurements for Transient Analysis

tplh                =  1.08006e-09 targ=  2.63274e-08 trig=  2.52473e-08
tphl                =  1.03924e-09 targ=  9.87812e-08 trig=  9.77420e-08
i_vdd_avg           =  -1.83178e-06 from=  1.00000e-08 to=  3.30002e-07
power_avg_uw        =  3.49510e+00


Total analysis time (seconds) = 1.62997

Total elapsed time (seconds) = 1.790 

Total DRAM available = 16384.000 MB.
DRAM currently available =  119.609 MB.
Maximum ngspice program size =   24.312 MB.
Current ngspice program size =   24.312 MB.

