
Note: Compatibility modes selected: hs a


Circuit: SKY130 library cell nand3_4 A_to_Y__B=1,C=1

option SCALE: Scale is set to 1e-06 for instance and model parameters
Doing analysis at TEMP = -38.204124 and TNOM = 27.000000

Using KLU as Direct Linear Solver
 Reference value :  7.64640e-09
 Reference value :  3.35097e-08
 Reference value :  6.24497e-08
 Reference value :  9.00847e-08
 Reference value :  1.20472e-07
 Reference value :  1.49517e-07
 Reference value :  1.78602e-07
 Reference value :  2.07425e-07
 Reference value :  2.36615e-07
 Reference value :  2.63470e-07
 Reference value :  2.91932e-07
 Reference value :  3.20407e-07
No. of Data Rows : 68030

  Measurements for Transient Analysis

tphl                =  4.01214e-10 targ=  2.74498e-08 trig=  2.70486e-08
tplh                =  1.43242e-09 targ=  1.04578e-07 trig=  1.03146e-07
i_vdd_avg           =  -4.56112e-07 from=  1.00000e-08 to=  3.30002e-07
power_avg_uw        =  7.65877e-01


Total analysis time (seconds) = 3.01214

Total elapsed time (seconds) = 3.192 

Total DRAM available = 16384.000 MB.
DRAM currently available =  131.781 MB.
Maximum ngspice program size =   27.047 MB.
Current ngspice program size =   27.047 MB.

