
Note: Compatibility modes selected: hs a


Circuit: SKY130 library cell aoi21_4 A1_to_Y__A2=1,B1=0

option SCALE: Scale is set to 1e-06 for instance and model parameters
Doing analysis at TEMP = 116.943440 and TNOM = 27.000000

Using KLU as Direct Linear Solver
 Reference value :  9.44640e-09
 Reference value :  3.55793e-08
 Reference value :  6.14793e-08
 Reference value :  8.74443e-08
 Reference value :  1.15421e-07
 Reference value :  1.44571e-07
 Reference value :  1.73146e-07
 Reference value :  2.02469e-07
 Reference value :  2.29989e-07
 Reference value :  2.58829e-07
 Reference value :  2.86586e-07
 Reference value :  3.14676e-07
No. of Data Rows : 68030

  Measurements for Transient Analysis

tphl                =  7.10586e-10 targ=  2.66615e-08 trig=  2.59509e-08
tplh                =  1.22994e-09 targ=  1.01083e-07 trig=  9.98527e-08
i_vdd_avg           =  -2.47421e-06 from=  1.00000e-08 to=  3.30001e-07
power_avg_uw        =  4.59948e+00


Total analysis time (seconds) = 3.09853

Total elapsed time (seconds) = 3.272 

Total DRAM available = 16384.000 MB.
DRAM currently available =   81.875 MB.
Maximum ngspice program size =   25.797 MB.
Current ngspice program size =   25.797 MB.

