
Note: Compatibility modes selected: hs a


Circuit: SKY130 library cell aoi21_4 A1_to_Y__A2=1,B1=0

option SCALE: Scale is set to 1e-06 for instance and model parameters
Doing analysis at TEMP = 20.466094 and TNOM = 27.000000

Using KLU as Direct Linear Solver
 Reference value :  9.25140e-09
 Reference value :  3.96711e-08
 Reference value :  6.68811e-08
 Reference value :  9.44661e-08
 Reference value :  1.21930e-07
 Reference value :  1.49485e-07
 Reference value :  1.77715e-07
 Reference value :  2.06551e-07
 Reference value :  2.35991e-07
 Reference value :  2.64121e-07
 Reference value :  2.91690e-07
 Reference value :  3.19255e-07
No. of Data Rows : 68034

  Measurements for Transient Analysis

tphl                =  1.15442e-09 targ=  2.97387e-08 trig=  2.85843e-08
tplh                =  2.48667e-09 targ=  1.10239e-07 trig=  1.07753e-07
i_vdd_avg           =  -1.60258e-06 from=  1.00000e-08 to=  3.30005e-07
power_avg_uw        =  3.02253e+00


Total analysis time (seconds) = 3.0829

Total elapsed time (seconds) = 3.248 

Total DRAM available = 16384.000 MB.
DRAM currently available =  125.516 MB.
Maximum ngspice program size =   26.156 MB.
Current ngspice program size =   26.156 MB.

