
Note: Compatibility modes selected: hs a


Circuit: SKY130 library cell inv_4 A_to_Y

option SCALE: Scale is set to 1e-06 for instance and model parameters
Doing analysis at TEMP = 31.830599 and TNOM = 27.000000

Using KLU as Direct Linear Solver
 Reference value :  3.55454e-08
 Reference value :  1.26603e-07
 Reference value :  2.12290e-07
 Reference value :  3.04563e-07
No. of Data Rows : 68034

  Measurements for Transient Analysis

tphl                =  -1.86902e-10 targ=  2.57995e-08 trig=  2.59864e-08
tplh                =  4.67689e-10 targ=  1.00427e-07 trig=  9.99593e-08
i_vdd_avg           =  -5.64553e-07 from=  1.00000e-08 to=  3.30003e-07
power_avg_uw        =  9.67940e-01


Total analysis time (seconds) = 0.947753

Total elapsed time (seconds) = 1.101 

Total DRAM available = 16384.000 MB.
DRAM currently available =   91.594 MB.
Maximum ngspice program size =   28.172 MB.
Current ngspice program size =   28.172 MB.

