
Note: Compatibility modes selected: hs a


Circuit: SKY130 library cell oai21_1 A1_to_Y__A2=0,B1=1

option SCALE: Scale is set to 1e-06 for instance and model parameters
Doing analysis at TEMP = -14.542709 and TNOM = 27.000000

Using KLU as Direct Linear Solver
 Reference value :  3.62590e-08
 Reference value :  1.38230e-07
 Reference value :  2.43584e-07
No. of Data Rows : 68030

  Measurements for Transient Analysis

tphl                =  1.08667e-09 targ=  3.03649e-08 trig=  2.92782e-08
tplh                =  3.96776e-09 targ=  1.13802e-07 trig=  1.09835e-07
i_vdd_avg           =  -1.95480e-06 from=  1.00000e-08 to=  3.30000e-07
power_avg_uw        =  3.62674e+00


Total analysis time (seconds) = 0.838596

Total elapsed time (seconds) = 0.995 

Total DRAM available = 16384.000 MB.
DRAM currently available =  100.609 MB.
Maximum ngspice program size =   26.281 MB.
Current ngspice program size =   26.281 MB.

