
Note: Compatibility modes selected: hs a


Circuit: SKY130 library cell nor2_1 A_to_Y__B=0

option SCALE: Scale is set to 1e-06 for instance and model parameters
Doing analysis at TEMP = 119.032640 and TNOM = 27.000000

Using KLU as Direct Linear Solver
 Reference value :  5.73845e-08
 Reference value :  2.07675e-07
No. of Data Rows : 68030

  Measurements for Transient Analysis

tphl                =  7.68169e-11 targ=  2.81253e-08 trig=  2.80485e-08
tplh                =  1.44804e-09 targ=  1.07594e-07 trig=  1.06146e-07
i_vdd_avg           =  -9.87710e-07 from=  1.00000e-08 to=  3.30002e-07
power_avg_uw        =  1.82135e+00


Total analysis time (seconds) = 0.575945

Total elapsed time (seconds) = 0.725 

Total DRAM available = 16384.000 MB.
DRAM currently available =   87.938 MB.
Maximum ngspice program size =   24.594 MB.
Current ngspice program size =   24.594 MB.

