
Note: Compatibility modes selected: hs a


Circuit: SKY130 library cell nand2_4 A_to_Y__B=1

option SCALE: Scale is set to 1e-06 for instance and model parameters
Doing analysis at TEMP = 55.411962 and TNOM = 27.000000

Using KLU as Direct Linear Solver
 Reference value :  1.45764e-08
 Reference value :  6.18841e-08
 Reference value :  1.07174e-07
 Reference value :  1.53756e-07
 Reference value :  2.00139e-07
 Reference value :  2.45989e-07
 Reference value :  2.91536e-07
 Reference value :  3.37321e-07
No. of Data Rows : 68030

  Measurements for Transient Analysis

tphl                =  1.01065e-09 targ=  3.01964e-08 trig=  2.91858e-08
tplh                =  1.94755e-09 targ=  1.11505e-07 trig=  1.09557e-07
i_vdd_avg           =  -1.19526e-06 from=  1.00000e-08 to=  3.30001e-07
power_avg_uw        =  2.20381e+00


Total analysis time (seconds) = 1.87449

Total elapsed time (seconds) = 2.033 

Total DRAM available = 16384.000 MB.
DRAM currently available =   97.609 MB.
Maximum ngspice program size =   25.609 MB.
Current ngspice program size =   25.609 MB.

