
Note: Compatibility modes selected: hs a


Circuit: SKY130 library cell nand3_4 A_to_Y__B=1,C=1

option SCALE: Scale is set to 1e-06 for instance and model parameters
Doing analysis at TEMP = 5.493745 and TNOM = 27.000000

Using KLU as Direct Linear Solver
 Reference value :  7.38640e-09
 Reference value :  3.45482e-08
 Reference value :  6.27432e-08
 Reference value :  8.80682e-08
 Reference value :  1.15839e-07
 Reference value :  1.44864e-07
 Reference value :  1.72514e-07
 Reference value :  1.99028e-07
 Reference value :  2.28048e-07
 Reference value :  2.55883e-07
 Reference value :  2.84219e-07
 Reference value :  3.12004e-07
 Reference value :  3.39849e-07
No. of Data Rows : 68032

  Measurements for Transient Analysis

tphl                =  1.05346e-09 targ=  2.77713e-08 trig=  2.67179e-08
tplh                =  1.65680e-09 targ=  1.03810e-07 trig=  1.02154e-07
i_vdd_avg           =  -1.39868e-06 from=  1.00000e-08 to=  3.30004e-07
power_avg_uw        =  2.59850e+00


Total analysis time (seconds) = 3.15372

Total elapsed time (seconds) = 3.333 

Total DRAM available = 16384.000 MB.
DRAM currently available =  176.062 MB.
Maximum ngspice program size =   25.000 MB.
Current ngspice program size =   24.500 MB.

