
Note: Compatibility modes selected: hs a


Circuit: SKY130 library cell aoi21_1 A1_to_Y__A2=1,B1=0

option SCALE: Scale is set to 1e-06 for instance and model parameters
Doing analysis at TEMP = 37.476291 and TNOM = 27.000000

Using KLU as Direct Linear Solver
 Reference value :  3.01875e-08
 Reference value :  1.23101e-07
 Reference value :  2.18827e-07
 Reference value :  3.20811e-07
No. of Data Rows : 68032

  Measurements for Transient Analysis

tphl                =  2.08117e-09 targ=  3.14934e-08 trig=  2.94122e-08
tplh                =  4.36611e-09 targ=  1.14603e-07 trig=  1.10237e-07
i_vdd_avg           =  -1.08779e-06 from=  1.00000e-08 to=  3.30001e-07
power_avg_uw        =  1.80394e+00


Total analysis time (seconds) = 0.898822

Total elapsed time (seconds) = 1.063 

Total DRAM available = 16384.000 MB.
DRAM currently available =  122.281 MB.
Maximum ngspice program size =   28.875 MB.
Current ngspice program size =   28.875 MB.

