
Note: Compatibility modes selected: hs a


Circuit: SKY130 library cell oai21_1 A1_to_Y__A2=0,B1=1

option SCALE: Scale is set to 1e-06 for instance and model parameters
Doing analysis at TEMP = 13.147266 and TNOM = 27.000000

Using KLU as Direct Linear Solver
 Reference value :  3.33455e-08
 Reference value :  1.32219e-07
 Reference value :  2.34621e-07
 Reference value :  3.38479e-07
No. of Data Rows : 68034

  Measurements for Transient Analysis

tphl                =  5.15571e-10 targ=  2.52921e-08 trig=  2.47765e-08
tplh                =  1.24926e-09 targ=  9.75788e-08 trig=  9.63296e-08
i_vdd_avg           =  -1.12326e-06 from=  1.00000e-08 to=  3.30004e-07
power_avg_uw        =  2.10086e+00


Total analysis time (seconds) = 0.851099

Total elapsed time (seconds) = 1.005 

Total DRAM available = 16384.000 MB.
DRAM currently available =   97.656 MB.
Maximum ngspice program size =   25.062 MB.
Current ngspice program size =   25.062 MB.

