
Note: Compatibility modes selected: hs a


Circuit: SKY130 library cell nor2_1 A_to_Y__B=0

option SCALE: Scale is set to 1e-06 for instance and model parameters
Doing analysis at TEMP = 108.784510 and TNOM = 27.000000

Using KLU as Direct Linear Solver
 Reference value :  4.43653e-08
 Reference value :  1.96200e-07
No. of Data Rows : 68034

  Measurements for Transient Analysis

tphl                =  1.37380e-09 targ=  2.72302e-08 trig=  2.58564e-08
tplh                =  2.65767e-09 targ=  1.02227e-07 trig=  9.95693e-08
i_vdd_avg           =  -8.90067e-07 from=  1.00000e-08 to=  3.30003e-07
power_avg_uw        =  1.48672e+00


Total analysis time (seconds) = 0.553202

Total elapsed time (seconds) = 0.721 

Total DRAM available = 16384.000 MB.
DRAM currently available =  131.141 MB.
Maximum ngspice program size =   25.984 MB.
Current ngspice program size =   25.984 MB.

