
Note: Compatibility modes selected: hs a


Circuit: SKY130 library cell oai21_4 A1_to_Y__A2=0,B1=1

option SCALE: Scale is set to 1e-06 for instance and model parameters
Doing analysis at TEMP = 69.423488 and TNOM = 27.000000

Using KLU as Direct Linear Solver
 Reference value :  7.11140e-09
 Reference value :  3.53677e-08
 Reference value :  6.59677e-08
 Reference value :  9.30677e-08
 Reference value :  1.19553e-07
 Reference value :  1.48193e-07
 Reference value :  1.76108e-07
 Reference value :  2.05123e-07
 Reference value :  2.33113e-07
 Reference value :  2.61953e-07
 Reference value :  2.89838e-07
 Reference value :  3.16943e-07
No. of Data Rows : 68032

  Measurements for Transient Analysis

tphl                =  6.88656e-10 targ=  2.62862e-08 trig=  2.55976e-08
tplh                =  1.24728e-09 targ=  1.00040e-07 trig=  9.87927e-08
i_vdd_avg           =  -1.88754e-06 from=  1.00000e-08 to=  3.30003e-07
power_avg_uw        =  3.71729e+00


Total analysis time (seconds) = 3.04762

Total elapsed time (seconds) = 3.224 

Total DRAM available = 16384.000 MB.
DRAM currently available =  131.406 MB.
Maximum ngspice program size =   29.344 MB.
Current ngspice program size =   29.344 MB.

