
Note: Compatibility modes selected: hs a


Circuit: SKY130 library cell inv_1 A_to_Y

option SCALE: Scale is set to 1e-06 for instance and model parameters
Doing analysis at TEMP = 18.375214 and TNOM = 27.000000

Using KLU as Direct Linear Solver
 Reference value :  1.37772e-07
No. of Data Rows : 68032

  Measurements for Transient Analysis

tphl                =  1.98382e-09 targ=  3.17286e-08 trig=  2.97448e-08
tplh                =  3.92098e-09 targ=  1.15155e-07 trig=  1.11234e-07
i_vdd_avg           =  -1.33597e-06 from=  1.00000e-08 to=  3.30002e-07
power_avg_uw        =  2.57897e+00


Total analysis time (seconds) = 0.337816

Total elapsed time (seconds) = 0.479 

Total DRAM available = 16384.000 MB.
DRAM currently available =  203.391 MB.
Maximum ngspice program size =   23.641 MB.
Current ngspice program size =   23.641 MB.

