
Note: Compatibility modes selected: hs a


Circuit: SKY130 library cell mux2_4 A0_to_X__A1=0,S=0

option SCALE: Scale is set to 1e-06 for instance and model parameters
Doing analysis at TEMP = 20.410409 and TNOM = 27.000000

Using KLU as Direct Linear Solver
 Reference value :  1.07664e-08
 Reference value :  4.29770e-08
 Reference value :  7.77170e-08
 Reference value :  1.12782e-07
 Reference value :  1.47852e-07
 Reference value :  1.82692e-07
 Reference value :  2.17757e-07
 Reference value :  2.52417e-07
 Reference value :  2.89447e-07
 Reference value :  3.24262e-07
No. of Data Rows : 68032

  Measurements for Transient Analysis

tplh                =  1.81917e-10 targ=  2.74892e-08 trig=  2.73073e-08
tphl                =  1.24637e-09 targ=  1.05168e-07 trig=  1.03922e-07
i_vdd_avg           =  -2.03542e-06 from=  1.00000e-08 to=  3.30002e-07
power_avg_uw        =  3.56960e+00


Total analysis time (seconds) = 2.4923

Total elapsed time (seconds) = 2.656 

Total DRAM available = 16384.000 MB.
DRAM currently available =  172.859 MB.
Maximum ngspice program size =   27.375 MB.
Current ngspice program size =   27.375 MB.

