
Note: No compatibility mode selected!


Circuit: GF180MCU library cell xor2_1 A1_to_Z__A2=0

Doing analysis at TEMP = 91.371130 and TNOM = 27.000000

Using SPARSE 1.3 as Direct Linear Solver

Initial Transient Solution
--------------------------

Node                                   Voltage
----                                   -------
vdd                                    1.91458
a1                                           0
a2                                           0
xu1.i                                  1.91456
z                                  4.10148e-08
xu1.net_0                          2.04446e-08
xu1.net_2                              1.91457
xu1.net_1                             0.564526
vfix_a2#branch                               0
vin#branch                                   0
vdd#branch                        -2.70426e-10

 Reference value :  3.85857e-08
 Reference value :  9.78907e-08
 Reference value :  1.58859e-07
 Reference value :  2.15526e-07
 Reference value :  2.78354e-07
 Reference value :  3.39009e-07
No. of Data Rows : 68034

  Measurements for Transient Analysis

tplh                =  8.34590e-09 targ=  3.82325e-08 trig=  2.98866e-08
tphl                =  4.61214e-09 targ=  1.16272e-07 trig=  1.11660e-07
i_vdd_avg           =  -2.57067e-06 from=  1.00000e-08 to=  3.30004e-07
power_avg_uw        =  4.92174e+00


Total analysis time (seconds) = 1.535

Total elapsed time (seconds) = 1.624 

Total DRAM available = 16384.000 MB.
DRAM currently available =  131.172 MB.
Maximum ngspice program size =   18.062 MB.
Current ngspice program size =   18.062 MB.

