
Note: No compatibility mode selected!


Circuit: GF180MCU library cell aoi21_4 A1_to_ZN__A2=1,B=0

Doing analysis at TEMP = 42.425262 and TNOM = 27.000000

Using SPARSE 1.3 as Direct Linear Solver

Initial Transient Solution
--------------------------

Node                                   Voltage
----                                   -------
vdd                                     1.6996
a1                                           0
a2                                      1.6996
b                                            0
xu1.net_0_0                        1.50321e-08
zn                                      1.6996
xu1.net_0_1                        1.50321e-08
xu1.net_0_2                        1.50321e-08
xu1.net_0_3                        1.50321e-08
xu1.net_1                               1.6996
vfix_b#branch                                0
vfix_a2#branch                               0
vin#branch                                   0
vdd#branch                        -4.06625e-11

 Reference value :  1.86164e-08
 Reference value :  4.68500e-08
 Reference value :  7.36100e-08
 Reference value :  1.01553e-07
 Reference value :  1.30658e-07
 Reference value :  1.60368e-07
 Reference value :  1.89000e-07
 Reference value :  2.17395e-07
 Reference value :  2.44830e-07
 Reference value :  2.72523e-07
 Reference value :  3.00853e-07
 Reference value :  3.28773e-07
No. of Data Rows : 68034

  Measurements for Transient Analysis

tphl                =  6.01869e-10 targ=  2.54056e-08 trig=  2.48038e-08
tplh                =  1.20727e-09 targ=  9.76185e-08 trig=  9.64113e-08
i_vdd_avg           =  -6.90977e-07 from=  1.00000e-08 to=  3.30003e-07
power_avg_uw        =  1.17438e+00


Total analysis time (seconds) = 3.39168

Total elapsed time (seconds) = 3.480 

Total DRAM available = 16384.000 MB.
DRAM currently available =  119.344 MB.
Maximum ngspice program size =   18.094 MB.
Current ngspice program size =   18.094 MB.

