
Note: No compatibility mode selected!


Circuit: GF180MCU library cell oai21_1 A1_to_ZN__A2=0,B=1

Doing analysis at TEMP = 12.043960 and TNOM = 27.000000

Using SPARSE 1.3 as Direct Linear Solver

Initial Transient Solution
--------------------------

Node                                   Voltage
----                                   -------
vdd                                    1.89157
a1                                           0
a2                                           0
b                                      1.89157
zn                                     1.89157
xu1.net_0                          3.01269e-09
xu1.net_1                              1.89157
vfix_b#branch                                0
vfix_a2#branch                               0
vin#branch                                   0
vdd#branch                        -4.58042e-12

 Reference value :  6.89926e-08
 Reference value :  1.60348e-07
 Reference value :  2.56993e-07
No. of Data Rows : 68032

  Measurements for Transient Analysis

tphl                =  8.70871e-10 targ=  2.49934e-08 trig=  2.41226e-08
tplh                =  2.16279e-09 targ=  9.65305e-08 trig=  9.43677e-08
i_vdd_avg           =  -6.30701e-07 from=  1.00000e-08 to=  3.30003e-07
power_avg_uw        =  1.19302e+00


Total analysis time (seconds) = 0.96953

Total elapsed time (seconds) = 1.052 

Total DRAM available = 16384.000 MB.
DRAM currently available =  118.016 MB.
Maximum ngspice program size =   18.938 MB.
Current ngspice program size =   18.938 MB.

