
Note: No compatibility mode selected!


Circuit: GF180MCU library cell nand3_4 A1_to_ZN__A2=1,A3=1

Doing analysis at TEMP = 123.907850 and TNOM = 27.000000

Using SPARSE 1.3 as Direct Linear Solver

Initial Transient Solution
--------------------------

Node                                   Voltage
----                                   -------
vdd                                    1.72037
a1                                           0
a2                                     1.72037
a3                                     1.72037
xu1.net_1_3                        1.22174e-06
xu1.net_0                          2.44348e-06
xu1.net_1_2                        1.22174e-06
xu1.net_1_1                        1.22174e-06
xu1.net_1_0                        1.22174e-06
xu1.net_0_0                        2.44348e-06
zn                                     1.72037
vfix_a3#branch                               0
vfix_a2#branch                               0
vin#branch                                   0
vdd#branch                        -8.65302e-10

 Reference value :  2.40875e-08
 Reference value :  5.83878e-08
 Reference value :  8.83028e-08
 Reference value :  1.17493e-07
 Reference value :  1.46398e-07
 Reference value :  1.73553e-07
 Reference value :  2.00723e-07
 Reference value :  2.27788e-07
 Reference value :  2.54668e-07
 Reference value :  2.82053e-07
 Reference value :  3.08313e-07
 Reference value :  3.34568e-07
No. of Data Rows : 68032

  Measurements for Transient Analysis

tphl                =  1.42613e-09 targ=  2.63838e-08 trig=  2.49576e-08
tplh                =  1.64948e-09 targ=  9.85224e-08 trig=  9.68729e-08
i_vdd_avg           =  -1.60905e-06 from=  1.00000e-08 to=  3.30003e-07
power_avg_uw        =  2.76816e+00


Total analysis time (seconds) = 3.25313

Total elapsed time (seconds) = 3.322 

Total DRAM available = 16384.000 MB.
DRAM currently available =  126.391 MB.
Maximum ngspice program size =   17.906 MB.
Current ngspice program size =   17.906 MB.

