
Note: No compatibility mode selected!


Circuit: GF180MCU library cell nand2_1 A1_to_ZN__A2=1

Doing analysis at TEMP = 115.050730 and TNOM = 27.000000

Using SPARSE 1.3 as Direct Linear Solver

Initial Transient Solution
--------------------------

Node                                   Voltage
----                                   -------
vdd                                    1.68751
a1                                           0
a2                                     1.68751
xu1.net_0                          8.31637e-07
zn                                     1.68751
vfix_a2#branch                               0
vin#branch                                   0
vdd#branch                        -1.47518e-10

 Reference value :  8.55286e-08
 Reference value :  2.14319e-07
No. of Data Rows : 68032

  Measurements for Transient Analysis

tphl                =  4.34049e-09 targ=  3.00686e-08 trig=  2.57281e-08
tplh                =  5.84127e-09 targ=  1.05025e-07 trig=  9.91842e-08
i_vdd_avg           =  -1.86251e-06 from=  1.00000e-08 to=  3.30005e-07
power_avg_uw        =  3.14301e+00


Total analysis time (seconds) = 0.697476

Total elapsed time (seconds) = 0.792 

Total DRAM available = 16384.000 MB.
DRAM currently available =  153.953 MB.
Maximum ngspice program size =   17.406 MB.
Current ngspice program size =   17.406 MB.

