
Note: No compatibility mode selected!


Circuit: GF180MCU library cell oai21_4 A1_to_ZN__A2=0,B=1

Doing analysis at TEMP = 50.771729 and TNOM = 27.000000

Using SPARSE 1.3 as Direct Linear Solver

Initial Transient Solution
--------------------------

Node                                   Voltage
----                                   -------
vdd                                    1.90729
a1                                           0
a2                                           0
b                                      1.90729
zn                                     1.90729
xu1.net_0                          5.07282e-08
xu1.net_1_0                            1.90729
xu1.net_1_1                            1.90729
xu1.net_1_2                            1.90729
xu1.net_1_3                            1.90729
vfix_b#branch                                0
vfix_a2#branch                               0
vin#branch                                   0
vdd#branch                        -6.27863e-11

 Reference value :  1.87764e-08
 Reference value :  4.69313e-08
 Reference value :  7.59913e-08
 Reference value :  1.03606e-07
 Reference value :  1.33190e-07
 Reference value :  1.67895e-07
 Reference value :  2.06521e-07
 Reference value :  2.47806e-07
 Reference value :  2.92455e-07
No. of Data Rows : 68032

  Measurements for Transient Analysis

tphl                =  1.06024e-09 targ=  2.87797e-08 trig=  2.77194e-08
tplh                =  3.00649e-09 targ=  1.08165e-07 trig=  1.05158e-07
i_vdd_avg           =  -1.54236e-06 from=  1.00000e-08 to=  3.30000e-07
power_avg_uw        =  2.94172e+00


Total analysis time (seconds) = 2.52644

Total elapsed time (seconds) = 2.602 

Total DRAM available = 16384.000 MB.
DRAM currently available =  541.859 MB.
Maximum ngspice program size =   18.078 MB.
Current ngspice program size =   18.078 MB.

