
Note: No compatibility mode selected!


Circuit: GF180MCU library cell oai21_4 A1_to_ZN__A2=0,B=1

Doing analysis at TEMP = 118.676180 and TNOM = 27.000000

Using SPARSE 1.3 as Direct Linear Solver

Initial Transient Solution
--------------------------

Node                                   Voltage
----                                   -------
vdd                                       1.92
a1                                           0
a2                                           0
b                                         1.92
zn                                     1.91999
xu1.net_0                          1.90057e-06
xu1.net_1_0                               1.92
xu1.net_1_1                               1.92
xu1.net_1_2                               1.92
xu1.net_1_3                               1.92
vfix_b#branch                                0
vfix_a2#branch                               0
vin#branch                                   0
vdd#branch                        -1.53031e-09

 Reference value :  1.84364e-08
 Reference value :  4.63707e-08
 Reference value :  7.38607e-08
 Reference value :  1.03124e-07
 Reference value :  1.32219e-07
 Reference value :  1.61134e-07
 Reference value :  1.88786e-07
 Reference value :  2.17881e-07
 Reference value :  2.47746e-07
 Reference value :  2.76034e-07
 Reference value :  3.04364e-07
 Reference value :  3.33774e-07
No. of Data Rows : 68034

  Measurements for Transient Analysis

tphl                =  1.14404e-09 targ=  2.64481e-08 trig=  2.53041e-08
tplh                =  2.53406e-09 targ=  1.00446e-07 trig=  9.79123e-08
i_vdd_avg           =  -1.95668e-06 from=  1.00000e-08 to=  3.30004e-07
power_avg_uw        =  3.75684e+00


Total analysis time (seconds) = 3.27605

Total elapsed time (seconds) = 3.357 

Total DRAM available = 16384.000 MB.
DRAM currently available =  108.781 MB.
Maximum ngspice program size =   17.000 MB.
Current ngspice program size =   17.000 MB.

