
Note: No compatibility mode selected!


Circuit: GF180MCU library cell nand2_4 A1_to_ZN__A2=1

Doing analysis at TEMP = 84.739960 and TNOM = 27.000000

Using SPARSE 1.3 as Direct Linear Solver

Initial Transient Solution
--------------------------

Node                                   Voltage
----                                   -------
vdd                                    1.91266
a1                                           0
a2                                     1.91266
xu1.net_0_0                        1.84111e-07
zn                                     1.91266
xu1.net_0_1                        1.84111e-07
xu1.net_0_2                        1.84111e-07
xu1.net_0_3                        1.84111e-07
vfix_a2#branch                               0
vin#branch                                   0
vdd#branch                        -1.66079e-10

 Reference value :  2.49725e-08
 Reference value :  6.57958e-08
 Reference value :  1.04736e-07
 Reference value :  1.45254e-07
 Reference value :  1.86783e-07
 Reference value :  2.28181e-07
 Reference value :  2.70524e-07
 Reference value :  3.09639e-07
No. of Data Rows : 68034

  Measurements for Transient Analysis

tphl                =  1.39380e-09 targ=  2.86355e-08 trig=  2.72417e-08
tplh                =  2.38940e-09 targ=  1.06114e-07 trig=  1.03725e-07
i_vdd_avg           =  -2.04783e-06 from=  1.00000e-08 to=  3.30004e-07
power_avg_uw        =  3.91680e+00


Total analysis time (seconds) = 3.0215

Total elapsed time (seconds) = 3.111 

Total DRAM available = 16384.000 MB.
DRAM currently available =  136.750 MB.
Maximum ngspice program size =   18.531 MB.
Current ngspice program size =   12.438 MB.

