
Note: No compatibility mode selected!


Circuit: GF180MCU library cell oai21_1 A1_to_ZN__A2=0,B=1

Doing analysis at TEMP = 25.012753 and TNOM = 27.000000

Using SPARSE 1.3 as Direct Linear Solver

Initial Transient Solution
--------------------------

Node                                   Voltage
----                                   -------
vdd                                    1.92249
a1                                           0
a2                                           0
b                                      1.92249
zn                                     1.92249
xu1.net_0                          8.38117e-09
xu1.net_1                              1.92249
vfix_b#branch                                0
vfix_a2#branch                               0
vin#branch                                   0
vdd#branch                        -5.98593e-12

 Reference value :  6.34268e-08
 Reference value :  1.59416e-07
 Reference value :  2.59472e-07
No. of Data Rows : 68032

  Measurements for Transient Analysis

tphl                =  3.45862e-09 targ=  2.93533e-08 trig=  2.58946e-08
tplh                =  7.93840e-09 targ=  1.07622e-07 trig=  9.96839e-08
i_vdd_avg           =  -2.18161e-06 from=  1.00000e-08 to=  3.30001e-07
power_avg_uw        =  4.19411e+00


Total analysis time (seconds) = 0.952097

Total elapsed time (seconds) = 1.041 

Total DRAM available = 16384.000 MB.
DRAM currently available =  176.078 MB.
Maximum ngspice program size =   17.781 MB.
Current ngspice program size =   17.781 MB.

