
Note: No compatibility mode selected!


Circuit: GF180MCU library cell oai21_4 A1_to_ZN__A2=0,B=1

Doing analysis at TEMP = -13.998910 and TNOM = 27.000000

Using SPARSE 1.3 as Direct Linear Solver

Initial Transient Solution
--------------------------

Node                                   Voltage
----                                   -------
vdd                                    1.74044
a1                                           0
a2                                           0
b                                      1.74044
zn                                     1.74044
xu1.net_0                          2.88835e-10
xu1.net_1_0                            1.74044
xu1.net_1_1                            1.74044
xu1.net_1_2                            1.74044
xu1.net_1_3                            1.74044
vfix_b#branch                                0
vfix_a2#branch                               0
vin#branch                                   0
vdd#branch                        -1.42962e-11

 Reference value :  1.89214e-08
 Reference value :  4.72097e-08
 Reference value :  7.71747e-08
 Reference value :  1.05360e-07
 Reference value :  1.32702e-07
 Reference value :  1.59817e-07
 Reference value :  1.87323e-07
 Reference value :  2.17055e-07
 Reference value :  2.44915e-07
 Reference value :  2.73152e-07
 Reference value :  3.01977e-07
 Reference value :  3.30712e-07
No. of Data Rows : 68030

  Measurements for Transient Analysis

tphl                =  3.13730e-10 targ=  2.72898e-08 trig=  2.69761e-08
tplh                =  1.50756e-09 targ=  1.04436e-07 trig=  1.02928e-07
i_vdd_avg           =  -3.60010e-07 from=  1.00000e-08 to=  3.30002e-07
power_avg_uw        =  6.26577e-01


Total analysis time (seconds) = 3.46785

Total elapsed time (seconds) = 3.563 

Total DRAM available = 16384.000 MB.
DRAM currently available =  441.891 MB.
Maximum ngspice program size =   18.141 MB.
Current ngspice program size =   18.141 MB.

