
Note: No compatibility mode selected!


Circuit: GF180MCU library cell xor2_1 A1_to_Z__A2=0

Doing analysis at TEMP = -10.066330 and TNOM = 27.000000

Using SPARSE 1.3 as Direct Linear Solver

Initial Transient Solution
--------------------------

Node                                   Voltage
----                                   -------
vdd                                     1.6834
a1                                           0
a2                                           0
xu1.i                                   1.6834
z                                  2.67067e-08
xu1.net_0                            3.087e-09
xu1.net_2                               1.6834
xu1.net_1                             0.680511
vfix_a2#branch                               0
vin#branch                                   0
vdd#branch                        -1.02481e-11

 Reference value :  4.08376e-08
 Reference value :  1.06248e-07
 Reference value :  1.67418e-07
 Reference value :  2.32933e-07
 Reference value :  3.06108e-07
No. of Data Rows : 68032

  Measurements for Transient Analysis

tplh                =  7.03415e-09 targ=  3.31217e-08 trig=  2.60876e-08
tphl                =  2.85839e-09 targ=  1.03121e-07 trig=  1.00263e-07
i_vdd_avg           =  -1.54668e-06 from=  1.00000e-08 to=  3.30003e-07
power_avg_uw        =  2.60369e+00


Total analysis time (seconds) = 1.38172

Total elapsed time (seconds) = 1.464 

Total DRAM available = 16384.000 MB.
DRAM currently available =  485.125 MB.
Maximum ngspice program size =   17.750 MB.
Current ngspice program size =   17.750 MB.

