
Note: No compatibility mode selected!


Circuit: GF180MCU library cell nand2_4 A1_to_ZN__A2=1

Doing analysis at TEMP = 115.212290 and TNOM = 27.000000

Using SPARSE 1.3 as Direct Linear Solver

Initial Transient Solution
--------------------------

Node                                   Voltage
----                                   -------
vdd                                    1.79653
a1                                           0
a2                                     1.79653
xu1.net_0_0                        8.24784e-07
zn                                     1.79652
xu1.net_0_1                        8.24784e-07
xu1.net_0_2                        8.24784e-07
xu1.net_0_3                        8.24784e-07
vfix_a2#branch                               0
vin#branch                                   0
vdd#branch                        -6.25797e-10

 Reference value :  2.70448e-08
 Reference value :  6.80498e-08
 Reference value :  1.07777e-07
 Reference value :  1.46532e-07
 Reference value :  1.90065e-07
 Reference value :  2.30045e-07
 Reference value :  2.70472e-07
 Reference value :  3.10687e-07
No. of Data Rows : 68030

  Measurements for Transient Analysis

tphl                =  1.18090e-09 targ=  2.66170e-08 trig=  2.54361e-08
tplh                =  1.63536e-09 targ=  9.99438e-08 trig=  9.83084e-08
i_vdd_avg           =  -1.65659e-06 from=  1.00000e-08 to=  3.30002e-07
power_avg_uw        =  2.97610e+00


Total analysis time (seconds) = 2.3652

Total elapsed time (seconds) = 2.455 

Total DRAM available = 16384.000 MB.
DRAM currently available =  135.062 MB.
Maximum ngspice program size =   18.141 MB.
Current ngspice program size =   18.141 MB.

