
Note: No compatibility mode selected!


Circuit: GF180MCU library cell nor2_4 A1_to_ZN__A2=0

Doing analysis at TEMP = 75.530811 and TNOM = 27.000000

Using SPARSE 1.3 as Direct Linear Solver

Initial Transient Solution
--------------------------

Node                                   Voltage
----                                   -------
vdd                                     1.8961
a1                                           0
a2                                           0
zn                                      1.8961
xu1.net_0_0                             1.8961
xu1.net_0_1                             1.8961
xu1.net_0_2                             1.8961
xu1.net_0_3                             1.8961
vfix_a2#branch                               0
vin#branch                                   0
vdd#branch                        -2.08547e-10

 Reference value :  2.74175e-08
 Reference value :  6.68302e-08
 Reference value :  1.06695e-07
 Reference value :  1.46103e-07
 Reference value :  1.88888e-07
 Reference value :  2.36645e-07
 Reference value :  2.89533e-07
No. of Data Rows : 68034

  Measurements for Transient Analysis

tphl                =  8.29363e-10 targ=  2.88207e-08 trig=  2.79914e-08
tplh                =  2.68666e-09 targ=  1.08661e-07 trig=  1.05974e-07
i_vdd_avg           =  -1.36078e-06 from=  1.00000e-08 to=  3.30003e-07
power_avg_uw        =  2.58018e+00


Total analysis time (seconds) = 2.05348

Total elapsed time (seconds) = 2.147 

Total DRAM available = 16384.000 MB.
DRAM currently available =  499.469 MB.
Maximum ngspice program size =   17.766 MB.
Current ngspice program size =   17.766 MB.

