
Note: No compatibility mode selected!


Circuit: GF180MCU library cell inv_4 I_to_ZN

Doing analysis at TEMP = -12.835907 and TNOM = 27.000000

Using SPARSE 1.3 as Direct Linear Solver

Initial Transient Solution
--------------------------

Node                                   Voltage
----                                   -------
vdd                                    1.80284
i                                            0
zn                                     1.80284
vin#branch                                   0
vdd#branch                        -7.42033e-12

 Reference value :  5.09426e-08
 Reference value :  1.26278e-07
 Reference value :  2.06178e-07
 Reference value :  2.80028e-07
No. of Data Rows : 68032

  Measurements for Transient Analysis

tphl                =  1.00054e-09 targ=  2.78956e-08 trig=  2.68951e-08
tplh                =  2.19319e-09 targ=  1.04878e-07 trig=  1.02685e-07
i_vdd_avg           =  -1.60576e-06 from=  1.00000e-08 to=  3.30003e-07
power_avg_uw        =  2.89494e+00


Total analysis time (seconds) = 1.26054

Total elapsed time (seconds) = 1.336 

Total DRAM available = 16384.000 MB.
DRAM currently available =  476.031 MB.
Maximum ngspice program size =   17.578 MB.
Current ngspice program size =   17.578 MB.

