
Note: No compatibility mode selected!


Circuit: GF180MCU library cell xor2_4 A1_to_Z__A2=0

Doing analysis at TEMP = 42.758223 and TNOM = 27.000000

Using SPARSE 1.3 as Direct Linear Solver

Initial Transient Solution
--------------------------

Node                                   Voltage
----                                   -------
vdd                                    1.77634
a1                                           0
a2                                           0
xu1.net_2                            0.0470435
xu1.i                                  1.77634
xu1.net_0                          3.03749e-08
xu1.z_neg                              1.77634
z                                  8.65769e-09
xu1.net_1                              1.77634
vfix_a2#branch                               0
vin#branch                                   0
vdd#branch                        -2.15877e-11

 Reference value :  2.39164e-08
 Reference value :  6.04805e-08
 Reference value :  9.77655e-08
 Reference value :  1.34919e-07
 Reference value :  1.80529e-07
 Reference value :  2.28506e-07
 Reference value :  2.83129e-07
 Reference value :  3.38574e-07
No. of Data Rows : 68034

  Measurements for Transient Analysis

tplh                =  1.24144e-09 targ=  2.76579e-08 trig=  2.64165e-08
tphl                =  2.20965e-09 targ=  1.03459e-07 trig=  1.01250e-07
i_vdd_avg           =  -8.88237e-07 from=  1.00000e-08 to=  3.30004e-07
power_avg_uw        =  1.57781e+00


Total analysis time (seconds) = 2.02119

Total elapsed time (seconds) = 2.105 

Total DRAM available = 16384.000 MB.
DRAM currently available =  528.062 MB.
Maximum ngspice program size =   19.109 MB.
Current ngspice program size =   19.109 MB.

