
Note: No compatibility mode selected!


Circuit: GF180MCU library cell nor2_4 A1_to_ZN__A2=0

Doing analysis at TEMP = -8.267491 and TNOM = 27.000000

Using SPARSE 1.3 as Direct Linear Solver

Initial Transient Solution
--------------------------

Node                                   Voltage
----                                   -------
vdd                                      1.838
a1                                           0
a2                                           0
zn                                       1.838
xu1.net_0_0                              1.838
xu1.net_0_1                              1.838
xu1.net_0_2                              1.838
xu1.net_0_3                              1.838
vfix_a2#branch                               0
vin#branch                                   0
vdd#branch                        -1.53632e-11

 Reference value :  2.79775e-08
 Reference value :  7.13010e-08
 Reference value :  1.10461e-07
 Reference value :  1.50174e-07
 Reference value :  1.93041e-07
 Reference value :  2.33856e-07
 Reference value :  2.73809e-07
 Reference value :  3.12924e-07
No. of Data Rows : 68034

  Measurements for Transient Analysis

tphl                =  1.54984e-09 targ=  2.99691e-08 trig=  2.84192e-08
tplh                =  3.81230e-09 targ=  1.11070e-07 trig=  1.07258e-07
i_vdd_avg           =  -2.04062e-06 from=  1.00000e-08 to=  3.30004e-07
power_avg_uw        =  3.75065e+00


Total analysis time (seconds) = 2.49436

Total elapsed time (seconds) = 2.583 

Total DRAM available = 16384.000 MB.
DRAM currently available =  154.281 MB.
Maximum ngspice program size =   18.391 MB.
Current ngspice program size =   18.391 MB.

