
Note: No compatibility mode selected!


Circuit: GF180MCU library cell oai21_1 A1_to_ZN__A2=0,B=1

Doing analysis at TEMP = 57.016550 and TNOM = 27.000000

Using SPARSE 1.3 as Direct Linear Solver

Initial Transient Solution
--------------------------

Node                                   Voltage
----                                   -------
vdd                                    1.77841
a1                                           0
a2                                           0
b                                      1.77841
zn                                     1.77841
xu1.net_0                           7.6434e-08
xu1.net_1                              1.77841
vfix_b#branch                                0
vfix_a2#branch                               0
vin#branch                                   0
vdd#branch                        -1.98663e-11

 Reference value :  6.60351e-08
 Reference value :  1.59788e-07
 Reference value :  2.56960e-07
No. of Data Rows : 68034

  Measurements for Transient Analysis

tphl                =  4.38296e-09 targ=  3.30717e-08 trig=  2.86888e-08
tplh                =  9.14796e-09 targ=  1.17214e-07 trig=  1.08066e-07
i_vdd_avg           =  -1.66970e-06 from=  1.00000e-08 to=  3.30003e-07
power_avg_uw        =  2.96941e+00


Total analysis time (seconds) = 0.995064

Total elapsed time (seconds) = 1.082 

Total DRAM available = 16384.000 MB.
DRAM currently available =  422.547 MB.
Maximum ngspice program size =   18.203 MB.
Current ngspice program size =   18.203 MB.

