
Note: No compatibility mode selected!


Circuit: GF180MCU library cell oai21_4 A1_to_ZN__A2=0,B=1

Doing analysis at TEMP = 78.881726 and TNOM = 27.000000

Using SPARSE 1.3 as Direct Linear Solver

Initial Transient Solution
--------------------------

Node                                   Voltage
----                                   -------
vdd                                    1.69036
a1                                           0
a2                                           0
b                                      1.69036
zn                                     1.69036
xu1.net_0                          2.76598e-07
xu1.net_1_0                            1.69036
xu1.net_1_1                            1.69036
xu1.net_1_2                            1.69036
xu1.net_1_3                            1.69036
vfix_b#branch                                0
vfix_a2#branch                               0
vin#branch                                   0
vdd#branch                        -2.24634e-10

 Reference value :  1.83464e-08
 Reference value :  4.77067e-08
 Reference value :  7.65667e-08
 Reference value :  1.03197e-07
 Reference value :  1.30771e-07
 Reference value :  1.59781e-07
 Reference value :  1.87898e-07
 Reference value :  2.14607e-07
 Reference value :  2.44352e-07
 Reference value :  2.72667e-07
 Reference value :  3.00341e-07
 Reference value :  3.29771e-07
No. of Data Rows : 68032

  Measurements for Transient Analysis

tphl                =  6.50243e-10 targ=  2.97823e-08 trig=  2.91321e-08
tplh                =  2.90232e-09 targ=  1.12299e-07 trig=  1.09396e-07
i_vdd_avg           =  -7.83354e-07 from=  1.00000e-08 to=  3.30001e-07
power_avg_uw        =  1.32415e+00


Total analysis time (seconds) = 3.3832

Total elapsed time (seconds) = 3.478 

Total DRAM available = 16384.000 MB.
DRAM currently available =  119.344 MB.
Maximum ngspice program size =   17.359 MB.
Current ngspice program size =   17.359 MB.

