
Note: No compatibility mode selected!


Circuit: GF180MCU library cell aoi21_4 A1_to_ZN__A2=1,B=0

Doing analysis at TEMP = -38.164199 and TNOM = 27.000000

Using SPARSE 1.3 as Direct Linear Solver

Initial Transient Solution
--------------------------

Node                                   Voltage
----                                   -------
vdd                                    1.63306
a1                                           0
a2                                     1.63306
b                                            0
xu1.net_0_0                        1.03623e-11
zn                                     1.63306
xu1.net_0_1                        1.03602e-11
xu1.net_0_2                        1.03623e-11
xu1.net_0_3                        1.03602e-11
xu1.net_1                              1.63306
vfix_b#branch                                0
vfix_a2#branch                               0
vin#branch                                   0
vdd#branch                        -1.31693e-11

 Reference value :  2.27514e-08
 Reference value :  5.48563e-08
 Reference value :  8.40763e-08
 Reference value :  1.11746e-07
 Reference value :  1.38525e-07
 Reference value :  1.65465e-07
 Reference value :  1.93558e-07
 Reference value :  2.20636e-07
 Reference value :  2.47436e-07
 Reference value :  2.75371e-07
 Reference value :  3.01220e-07
 Reference value :  3.28860e-07
No. of Data Rows : 68032

  Measurements for Transient Analysis

tphl                =  2.02357e-09 targ=  3.19479e-08 trig=  2.99244e-08
tplh                =  4.80648e-09 targ=  1.16580e-07 trig=  1.11773e-07
i_vdd_avg           =  -1.44604e-06 from=  1.00000e-08 to=  3.30000e-07
power_avg_uw        =  2.36147e+00


Total analysis time (seconds) = 3.29821

Total elapsed time (seconds) = 3.366 

Total DRAM available = 16384.000 MB.
DRAM currently available =  136.234 MB.
Maximum ngspice program size =   18.172 MB.
Current ngspice program size =   18.172 MB.

