
Note: No compatibility mode selected!


Circuit: GF180MCU library cell nand2_4 A1_to_ZN__A2=1

Doing analysis at TEMP = -8.069822 and TNOM = 27.000000

Using SPARSE 1.3 as Direct Linear Solver

Initial Transient Solution
--------------------------

Node                                   Voltage
----                                   -------
vdd                                    1.82478
a1                                           0
a2                                     1.82478
xu1.net_0_0                        2.54377e-10
zn                                     1.82478
xu1.net_0_1                        2.54376e-10
xu1.net_0_2                        2.54377e-10
xu1.net_0_3                        2.54376e-10
vfix_a2#branch                               0
vin#branch                                   0
vdd#branch                        -7.60668e-12

 Reference value :  2.71464e-08
 Reference value :  6.91064e-08
 Reference value :  1.11570e-07
 Reference value :  1.54530e-07
 Reference value :  1.98856e-07
 Reference value :  2.37511e-07
 Reference value :  2.79380e-07
 Reference value :  3.19585e-07
No. of Data Rows : 68032

  Measurements for Transient Analysis

tphl                =  9.76643e-10 targ=  2.54861e-08 trig=  2.45095e-08
tplh                =  1.36418e-09 targ=  9.68926e-08 trig=  9.55284e-08
i_vdd_avg           =  -2.28784e-06 from=  1.00000e-08 to=  3.30000e-07
power_avg_uw        =  4.17481e+00


Total analysis time (seconds) = 2.26586

Total elapsed time (seconds) = 2.355 

Total DRAM available = 16384.000 MB.
DRAM currently available =  119.344 MB.
Maximum ngspice program size =   17.781 MB.
Current ngspice program size =   17.781 MB.

