
Note: No compatibility mode selected!


Circuit: GF180MCU library cell nand3_4 A1_to_ZN__A2=1,A3=1

Doing analysis at TEMP = 64.389155 and TNOM = 27.000000

Using SPARSE 1.3 as Direct Linear Solver

Initial Transient Solution
--------------------------

Node                                   Voltage
----                                   -------
vdd                                    1.84205
a1                                           0
a2                                     1.84205
a3                                     1.84205
xu1.net_1_3                        5.92833e-08
xu1.net_0                          1.18567e-07
xu1.net_1_2                        5.92833e-08
xu1.net_1_1                        5.92833e-08
xu1.net_1_0                        5.92833e-08
xu1.net_0_0                        1.18567e-07
zn                                     1.84205
vfix_a3#branch                               0
vfix_a2#branch                               0
vin#branch                                   0
vdd#branch                        -5.89621e-11

 Reference value :  1.97864e-08
 Reference value :  4.85336e-08
 Reference value :  7.68736e-08
 Reference value :  1.04194e-07
 Reference value :  1.33385e-07
 Reference value :  1.62580e-07
 Reference value :  1.91869e-07
 Reference value :  2.19809e-07
 Reference value :  2.47419e-07
 Reference value :  2.74140e-07
 Reference value :  3.00930e-07
 Reference value :  3.27815e-07
No. of Data Rows : 68032

  Measurements for Transient Analysis

tphl                =  2.20117e-09 targ=  2.97717e-08 trig=  2.75705e-08
tplh                =  3.11330e-09 targ=  1.07825e-07 trig=  1.04712e-07
i_vdd_avg           =  -2.34976e-06 from=  1.00000e-08 to=  3.30005e-07
power_avg_uw        =  4.32839e+00


Total analysis time (seconds) = 3.51832

Total elapsed time (seconds) = 3.604 

Total DRAM available = 16384.000 MB.
DRAM currently available =  165.062 MB.
Maximum ngspice program size =   15.891 MB.
Current ngspice program size =   15.891 MB.

