
Note: No compatibility mode selected!


Circuit: GF180MCU library cell xor2_1 A1_to_Z__A2=0

Doing analysis at TEMP = 116.888000 and TNOM = 27.000000

Using SPARSE 1.3 as Direct Linear Solver

Initial Transient Solution
--------------------------

Node                                   Voltage
----                                   -------
vdd                                    1.76127
a1                                           0
a2                                           0
xu1.i                                  1.76122
z                                  5.84716e-08
xu1.net_0                          2.92082e-08
xu1.net_2                              1.76125
xu1.net_1                             0.498259
vfix_a2#branch                               0
vin#branch                                   0
vdd#branch                        -7.03819e-10

 Reference value :  4.02326e-08
 Reference value :  1.03713e-07
 Reference value :  1.66258e-07
 Reference value :  2.28363e-07
 Reference value :  2.90773e-07
No. of Data Rows : 68032

  Measurements for Transient Analysis

tplh                =  3.95300e-09 targ=  2.88306e-08 trig=  2.48776e-08
tphl                =  1.85009e-09 targ=  9.84828e-08 trig=  9.66327e-08
i_vdd_avg           =  -8.51080e-07 from=  1.00000e-08 to=  3.30003e-07
power_avg_uw        =  1.49898e+00


Total analysis time (seconds) = 1.49849

Total elapsed time (seconds) = 1.588 

Total DRAM available = 16384.000 MB.
DRAM currently available =  113.141 MB.
Maximum ngspice program size =   15.953 MB.
Current ngspice program size =   15.953 MB.

