
Note: No compatibility mode selected!


Circuit: GF180MCU library cell xor2_1 A1_to_Z__A2=0

Doing analysis at TEMP = -36.730915 and TNOM = 27.000000

Using SPARSE 1.3 as Direct Linear Solver

Initial Transient Solution
--------------------------

Node                                   Voltage
----                                   -------
vdd                                    1.66093
a1                                           0
a2                                           0
xu1.i                                  1.66093
z                                  2.40448e-08
xu1.net_0                          2.07222e-10
xu1.net_2                              1.66093
xu1.net_1                              0.72375
vfix_a2#branch                               0
vin#branch                                   0
vdd#branch                        -9.54921e-12

 Reference value :  3.90850e-08
 Reference value :  9.78000e-08
 Reference value :  1.61352e-07
 Reference value :  2.24635e-07
 Reference value :  2.85492e-07
No. of Data Rows : 68030

  Measurements for Transient Analysis

tplh                =  3.90375e-09 targ=  3.10950e-08 trig=  2.71912e-08
tphl                =  2.60033e-09 targ=  1.06174e-07 trig=  1.03574e-07
i_vdd_avg           =  -8.59557e-07 from=  1.00000e-08 to=  3.30002e-07
power_avg_uw        =  1.42767e+00


Total analysis time (seconds) = 1.61293

Total elapsed time (seconds) = 1.706 

Total DRAM available = 16384.000 MB.
DRAM currently available =  144.422 MB.
Maximum ngspice program size =   18.062 MB.
Current ngspice program size =   18.062 MB.

