
Note: No compatibility mode selected!


Circuit: GF180MCU library cell xor2_4 A1_to_Z__A2=0

Doing analysis at TEMP = 119.491980 and TNOM = 27.000000

Using SPARSE 1.3 as Direct Linear Solver

Initial Transient Solution
--------------------------

Node                                   Voltage
----                                   -------
vdd                                    1.70993
a1                                           0
a2                                           0
xu1.net_2                            0.0534586
xu1.i                                  1.70993
xu1.net_0                          2.01949e-06
xu1.z_neg                              1.70992
z                                  3.56976e-08
xu1.net_1                              1.70992
vfix_a2#branch                               0
vin#branch                                   0
vdd#branch                        -4.67282e-10

 Reference value :  2.11714e-08
 Reference value :  5.64747e-08
 Reference value :  9.17847e-08
 Reference value :  1.26617e-07
 Reference value :  1.60642e-07
 Reference value :  1.95500e-07
 Reference value :  2.30140e-07
 Reference value :  2.65690e-07
 Reference value :  3.02807e-07
 Reference value :  3.39242e-07
No. of Data Rows : 68030

  Measurements for Transient Analysis

tplh                =  9.50546e-10 targ=  3.00867e-08 trig=  2.91361e-08
tphl                =  2.95286e-09 targ=  1.12361e-07 trig=  1.09408e-07
i_vdd_avg           =  -5.05021e-07 from=  1.00000e-08 to=  3.30002e-07
power_avg_uw        =  8.63550e-01


Total analysis time (seconds) = 2.61248

Total elapsed time (seconds) = 2.700 

Total DRAM available = 16384.000 MB.
DRAM currently available =  153.953 MB.
Maximum ngspice program size =   17.250 MB.
Current ngspice program size =   17.250 MB.

