
Note: No compatibility mode selected!


Circuit: GF180MCU library cell aoi21_1 A1_to_ZN__A2=1,B=0

Doing analysis at TEMP = 97.790285 and TNOM = 27.000000

Using SPARSE 1.3 as Direct Linear Solver

Initial Transient Solution
--------------------------

Node                                   Voltage
----                                   -------
vdd                                    1.67269
a1                                           0
a2                                     1.67269
b                                            0
xu1.net_0                          3.69906e-07
zn                                     1.67269
xu1.net_1                              1.67269
vfix_b#branch                                0
vfix_a2#branch                               0
vin#branch                                   0
vdd#branch                        -1.40011e-10

 Reference value :  6.27368e-08
 Reference value :  1.56681e-07
 Reference value :  2.45397e-07
 Reference value :  3.37941e-07
No. of Data Rows : 68032

  Measurements for Transient Analysis

tphl                =  2.02009e-09 targ=  2.65573e-08 trig=  2.45372e-08
tplh                =  5.00469e-09 targ=  1.00616e-07 trig=  9.56115e-08
i_vdd_avg           =  -9.06528e-07 from=  1.00000e-08 to=  3.30001e-07
power_avg_uw        =  1.51634e+00


Total analysis time (seconds) = 1.01601

Total elapsed time (seconds) = 1.109 

Total DRAM available = 16384.000 MB.
DRAM currently available =  131.172 MB.
Maximum ngspice program size =   18.891 MB.
Current ngspice program size =   18.891 MB.

