
Note: No compatibility mode selected!


Circuit: GF180MCU library cell mux2_1 I0_to_Z__I1=0,S=0

Doing analysis at TEMP = -5.695007 and TNOM = 27.000000

Using SPARSE 1.3 as Direct Linear Solver

Initial Transient Solution
--------------------------

Node                                   Voltage
----                                   -------
vdd                                    1.88348
i0                                           0
i1                                           0
s                                            0
xu1.int04                              1.88348
z                                  7.40753e-09
xu1.net_1                            0.0274534
xu1.net_3                              1.39077
xu1.sel1_n                             1.88348
xu1.net_0                              1.88348
xu1.net_2                              1.88348
vfix_s#branch                                0
vfix_i1#branch                               0
vin#branch                                   0
vdd#branch                        -1.12187e-11

 Reference value :  3.52368e-08
 Reference value :  8.36718e-08
 Reference value :  1.33951e-07
 Reference value :  1.88642e-07
 Reference value :  2.39892e-07
 Reference value :  2.93716e-07
No. of Data Rows : 68032

  Measurements for Transient Analysis

tplh                =  1.72722e-09 targ=  2.79194e-08 trig=  2.61922e-08
tphl                =  1.98676e-09 targ=  1.02563e-07 trig=  1.00577e-07
i_vdd_avg           =  -8.91742e-07 from=  1.00000e-08 to=  3.30001e-07
power_avg_uw        =  1.67958e+00


Total analysis time (seconds) = 2.38398

Total elapsed time (seconds) = 2.475 

Total DRAM available = 16384.000 MB.
DRAM currently available =  112.000 MB.
Maximum ngspice program size =   18.703 MB.
Current ngspice program size =   18.703 MB.

