
Note: No compatibility mode selected!


Circuit: GF180MCU library cell mux2_1 I0_to_Z__I1=0,S=0

Doing analysis at TEMP = 115.280020 and TNOM = 27.000000

Using SPARSE 1.3 as Direct Linear Solver

Initial Transient Solution
--------------------------

Node                                   Voltage
----                                   -------
vdd                                    1.72267
i0                                           0
i1                                           0
s                                            0
xu1.int04                              1.72265
z                                  3.00092e-08
xu1.net_1                            0.0533175
xu1.net_3                              1.30116
xu1.sel1_n                             1.72266
xu1.net_0                              1.72267
xu1.net_2                              1.72266
vfix_s#branch                                0
vfix_i1#branch                               0
vin#branch                                   0
vdd#branch                        -6.54361e-10

 Reference value :  3.24042e-08
 Reference value :  8.69892e-08
 Reference value :  1.39256e-07
 Reference value :  1.92819e-07
 Reference value :  2.46039e-07
 Reference value :  2.98656e-07
No. of Data Rows : 68030

  Measurements for Transient Analysis

tplh                =  3.73129e-09 targ=  2.87996e-08 trig=  2.50683e-08
tphl                =  2.70076e-09 targ=  9.99057e-08 trig=  9.72050e-08
i_vdd_avg           =  -1.42969e-06 from=  1.00000e-08 to=  3.30001e-07
power_avg_uw        =  2.46288e+00


Total analysis time (seconds) = 1.7582

Total elapsed time (seconds) = 1.858 

Total DRAM available = 16384.000 MB.
DRAM currently available =  441.891 MB.
Maximum ngspice program size =   19.266 MB.
Current ngspice program size =   19.266 MB.

