
Note: No compatibility mode selected!


Circuit: GF180MCU library cell oai21_1 A1_to_ZN__A2=0,B=1

Doing analysis at TEMP = 78.257936 and TNOM = 27.000000

Using SPARSE 1.3 as Direct Linear Solver

Initial Transient Solution
--------------------------

Node                                   Voltage
----                                   -------
vdd                                    1.62798
a1                                           0
a2                                           0
b                                      1.62798
zn                                     1.62798
xu1.net_0                          2.70432e-07
xu1.net_1                              1.62798
vfix_b#branch                                0
vfix_a2#branch                               0
vin#branch                                   0
vdd#branch                        -5.27539e-11

 Reference value :  6.54998e-08
 Reference value :  1.60532e-07
 Reference value :  2.50880e-07
No. of Data Rows : 68030

  Measurements for Transient Analysis

tphl                =  2.27420e-10 targ=  2.93761e-08 trig=  2.91487e-08
tplh                =  2.12525e-09 targ=  1.11571e-07 trig=  1.09446e-07
i_vdd_avg           =  -1.16104e-07 from=  1.00000e-08 to=  3.30002e-07
power_avg_uw        =  1.89015e-01


Total analysis time (seconds) = 0.960576

Total elapsed time (seconds) = 1.050 

Total DRAM available = 16384.000 MB.
DRAM currently available =  173.859 MB.
Maximum ngspice program size =   18.844 MB.
Current ngspice program size =   18.844 MB.

