
Note: No compatibility mode selected!


Circuit: GF180MCU library cell inv_4 I_to_ZN

Doing analysis at TEMP = 13.105638 and TNOM = 27.000000

Using SPARSE 1.3 as Direct Linear Solver

Initial Transient Solution
--------------------------

Node                                   Voltage
----                                   -------
vdd                                    1.73076
i                                            0
zn                                     1.73076
vin#branch                                   0
vdd#branch                        -8.52527e-12

 Reference value :  5.17290e-08
 Reference value :  1.27946e-07
 Reference value :  2.02614e-07
 Reference value :  2.77471e-07
No. of Data Rows : 68030

  Measurements for Transient Analysis

tphl                =  2.94687e-10 targ=  2.94280e-08 trig=  2.91333e-08
tplh                =  1.99852e-09 targ=  1.11398e-07 trig=  1.09400e-07
i_vdd_avg           =  -6.84719e-07 from=  1.00000e-08 to=  3.30001e-07
power_avg_uw        =  1.18508e+00


Total analysis time (seconds) = 1.44941

Total elapsed time (seconds) = 1.532 

Total DRAM available = 16384.000 MB.
DRAM currently available =  165.062 MB.
Maximum ngspice program size =   17.766 MB.
Current ngspice program size =   17.766 MB.

