
Note: No compatibility mode selected!


Circuit: GF180MCU library cell aoi21_1 A1_to_ZN__A2=1,B=0

Doing analysis at TEMP = 29.592385 and TNOM = 27.000000

Using SPARSE 1.3 as Direct Linear Solver

Initial Transient Solution
--------------------------

Node                                   Voltage
----                                   -------
vdd                                    1.71943
a1                                           0
a2                                     1.71943
b                                            0
xu1.net_0                          6.05732e-09
zn                                     1.71943
xu1.net_1                              1.71943
vfix_b#branch                                0
vfix_a2#branch                               0
vin#branch                                   0
vdd#branch                        -6.34476e-12

 Reference value :  6.11959e-08
 Reference value :  1.61104e-07
 Reference value :  2.56446e-07
No. of Data Rows : 68034

  Measurements for Transient Analysis

tphl                =  4.33998e-09 targ=  3.00042e-08 trig=  2.56642e-08
tplh                =  1.07076e-08 targ=  1.09700e-07 trig=  9.89926e-08
i_vdd_avg           =  -2.20179e-06 from=  1.00000e-08 to=  3.30004e-07
power_avg_uw        =  3.78582e+00


Total analysis time (seconds) = 0.977309

Total elapsed time (seconds) = 1.059 

Total DRAM available = 16384.000 MB.
DRAM currently available =  113.141 MB.
Maximum ngspice program size =   17.812 MB.
Current ngspice program size =   17.812 MB.

