
Note: No compatibility mode selected!


Circuit: GF180MCU library cell xor2_1 A1_to_Z__A2=0

Doing analysis at TEMP = 67.015925 and TNOM = 27.000000

Using SPARSE 1.3 as Direct Linear Solver

Initial Transient Solution
--------------------------

Node                                   Voltage
----                                   -------
vdd                                    1.94938
a1                                           0
a2                                           0
xu1.i                                  1.94937
z                                  3.54376e-08
xu1.net_0                          1.75228e-08
xu1.net_2                              1.94937
xu1.net_1                             0.610044
vfix_a2#branch                               0
vin#branch                                   0
vdd#branch                        -9.43696e-11

 Reference value :  3.97019e-08
 Reference value :  1.01702e-07
 Reference value :  1.64711e-07
 Reference value :  2.23312e-07
 Reference value :  2.80566e-07
No. of Data Rows : 68032

  Measurements for Transient Analysis

tplh                =  1.35990e-09 targ=  2.98821e-08 trig=  2.85222e-08
tphl                =  2.43171e-09 targ=  1.09998e-07 trig=  1.07567e-07
i_vdd_avg           =  -6.00051e-07 from=  1.00000e-08 to=  3.30001e-07
power_avg_uw        =  1.16973e+00


Total analysis time (seconds) = 1.57344

Total elapsed time (seconds) = 1.655 

Total DRAM available = 16384.000 MB.
DRAM currently available =  152.562 MB.
Maximum ngspice program size =   17.062 MB.
Current ngspice program size =   17.062 MB.

