
Note: No compatibility mode selected!


Circuit: GF180MCU library cell aoi21_1 A1_to_ZN__A2=1,B=0

Doing analysis at TEMP = -0.391085 and TNOM = 27.000000

Using SPARSE 1.3 as Direct Linear Solver

Initial Transient Solution
--------------------------

Node                                   Voltage
----                                   -------
vdd                                    1.83536
a1                                           0
a2                                     1.83536
b                                            0
xu1.net_0                          5.18044e-10
zn                                     1.83536
xu1.net_1                              1.83536
vfix_b#branch                                0
vfix_a2#branch                               0
vin#branch                                   0
vdd#branch                        -3.99033e-12

 Reference value :  6.49621e-08
 Reference value :  1.60432e-07
 Reference value :  2.57887e-07
No. of Data Rows : 68032

  Measurements for Transient Analysis

tphl                =  2.13622e-09 targ=  3.17935e-08 trig=  2.96573e-08
tplh                =  4.96710e-09 targ=  1.15939e-07 trig=  1.10972e-07
i_vdd_avg           =  -6.65573e-07 from=  1.00000e-08 to=  3.30002e-07
power_avg_uw        =  1.22156e+00


Total analysis time (seconds) = 0.979728

Total elapsed time (seconds) = 1.050 

Total DRAM available = 16384.000 MB.
DRAM currently available =  152.562 MB.
Maximum ngspice program size =   17.188 MB.
Current ngspice program size =   17.188 MB.

