
Note: No compatibility mode selected!


Circuit: GF180MCU library cell xor2_4 A1_to_Z__A2=0

Doing analysis at TEMP = 14.236532 and TNOM = 27.000000

Using SPARSE 1.3 as Direct Linear Solver

Initial Transient Solution
--------------------------

Node                                   Voltage
----                                   -------
vdd                                     1.6454
a1                                           0
a2                                           0
xu1.net_2                            0.0378221
xu1.i                                   1.6454
xu1.net_0                          3.74545e-09
xu1.z_neg                               1.6454
z                                  8.01964e-09
xu1.net_1                               1.6454
vfix_a2#branch                               0
vin#branch                                   0
vdd#branch                        -1.31081e-11

 Reference value :  2.46225e-08
 Reference value :  6.09327e-08
 Reference value :  9.97980e-08
 Reference value :  1.37813e-07
 Reference value :  1.74583e-07
 Reference value :  2.08638e-07
 Reference value :  2.46608e-07
 Reference value :  2.83378e-07
 Reference value :  3.19348e-07
No. of Data Rows : 68032

  Measurements for Transient Analysis

tplh                =  2.19251e-09 targ=  2.74801e-08 trig=  2.52876e-08
tphl                =  2.36340e-09 targ=  1.00226e-07 trig=  9.78629e-08
i_vdd_avg           =  -2.30041e-06 from=  1.00000e-08 to=  3.30003e-07
power_avg_uw        =  3.78510e+00


Total analysis time (seconds) = 2.66064

Total elapsed time (seconds) = 2.751 

Total DRAM available = 16384.000 MB.
DRAM currently available =  100.891 MB.
Maximum ngspice program size =   17.719 MB.
Current ngspice program size =   17.719 MB.

