
Note: No compatibility mode selected!


Circuit: GF180MCU library cell oai21_4 A1_to_ZN__A2=0,B=1

Doing analysis at TEMP = 32.195060 and TNOM = 27.000000

Using SPARSE 1.3 as Direct Linear Solver

Initial Transient Solution
--------------------------

Node                                   Voltage
----                                   -------
vdd                                     1.6595
a1                                           0
a2                                           0
b                                       1.6595
zn                                      1.6595
xu1.net_0                          1.48064e-08
xu1.net_1_0                             1.6595
xu1.net_1_1                             1.6595
xu1.net_1_2                             1.6595
xu1.net_1_3                             1.6595
vfix_b#branch                                0
vfix_a2#branch                               0
vin#branch                                   0
vdd#branch                        -2.57862e-11

 Reference value :  1.94864e-08
 Reference value :  4.72027e-08
 Reference value :  7.48877e-08
 Reference value :  1.01508e-07
 Reference value :  1.28283e-07
 Reference value :  1.56298e-07
 Reference value :  1.83433e-07
 Reference value :  2.10263e-07
 Reference value :  2.36503e-07
 Reference value :  2.64838e-07
 Reference value :  2.92203e-07
 Reference value :  3.21378e-07
No. of Data Rows : 68032

  Measurements for Transient Analysis

tphl                =  1.16034e-09 targ=  2.57079e-08 trig=  2.45476e-08
tplh                =  3.10050e-09 targ=  9.87433e-08 trig=  9.56428e-08
i_vdd_avg           =  -2.03089e-06 from=  1.00000e-08 to=  3.30003e-07
power_avg_uw        =  3.37026e+00


Total analysis time (seconds) = 3.32806

Total elapsed time (seconds) = 3.409 

Total DRAM available = 16384.000 MB.
DRAM currently available =  164.844 MB.
Maximum ngspice program size =   17.953 MB.
Current ngspice program size =   17.953 MB.

