
Note: No compatibility mode selected!


Circuit: GF180MCU library cell inv_4 I_to_ZN

Doing analysis at TEMP = 104.030220 and TNOM = 27.000000

Using SPARSE 1.3 as Direct Linear Solver

Initial Transient Solution
--------------------------

Node                                   Voltage
----                                   -------
vdd                                    1.66136
i                                            0
zn                                     1.66136
vin#branch                                   0
vdd#branch                        -3.60846e-10

 Reference value :  4.98400e-08
 Reference value :  1.29397e-07
 Reference value :  2.03475e-07
 Reference value :  2.83907e-07
No. of Data Rows : 68030

  Measurements for Transient Analysis

tphl                =  7.48860e-10 targ=  2.61101e-08 trig=  2.53612e-08
tplh                =  1.39227e-09 targ=  9.94760e-08 trig=  9.80837e-08
i_vdd_avg           =  -1.09700e-06 from=  1.00000e-08 to=  3.30002e-07
power_avg_uw        =  1.82251e+00


Total analysis time (seconds) = 1.22831

Total elapsed time (seconds) = 1.308 

Total DRAM available = 16384.000 MB.
DRAM currently available =  100.891 MB.
Maximum ngspice program size =   18.766 MB.
Current ngspice program size =   18.766 MB.

