
Note: No compatibility mode selected!


Circuit: GF180MCU library cell xor2_4 A1_to_Z__A2=0

Doing analysis at TEMP = -18.780382 and TNOM = 27.000000

Using SPARSE 1.3 as Direct Linear Solver

Initial Transient Solution
--------------------------

Node                                   Voltage
----                                   -------
vdd                                    1.80975
a1                                           0
a2                                           0
xu1.net_2                            0.0163466
xu1.i                                  1.80975
xu1.net_0                          1.75808e-10
xu1.z_neg                              1.80975
z                                  7.15271e-09
xu1.net_1                              1.80975
vfix_a2#branch                               0
vin#branch                                   0
vdd#branch                        -1.32592e-11

 Reference value :  2.33914e-08
 Reference value :  5.96370e-08
 Reference value :  9.90720e-08
 Reference value :  1.35672e-07
 Reference value :  1.75262e-07
 Reference value :  2.10247e-07
 Reference value :  2.45547e-07
 Reference value :  2.82652e-07
 Reference value :  3.18102e-07
No. of Data Rows : 68032

  Measurements for Transient Analysis

tplh                =  1.32117e-09 targ=  2.93509e-08 trig=  2.80298e-08
tphl                =  2.74485e-09 targ=  1.08834e-07 trig=  1.06089e-07
i_vdd_avg           =  -1.16362e-06 from=  1.00000e-08 to=  3.30002e-07
power_avg_uw        =  2.10587e+00


Total analysis time (seconds) = 2.95937

Total elapsed time (seconds) = 3.044 

Total DRAM available = 16384.000 MB.
DRAM currently available =  165.062 MB.
Maximum ngspice program size =   17.641 MB.
Current ngspice program size =   17.641 MB.

