
Note: No compatibility mode selected!


Circuit: GF180MCU library cell mux2_4 I0_to_Z__I1=0,S=0

Doing analysis at TEMP = 108.943440 and TNOM = 27.000000

Using SPARSE 1.3 as Direct Linear Solver

Initial Transient Solution
--------------------------

Node                                   Voltage
----                                   -------
vdd                                    1.93686
i0                                           0
i1                                           0
s                                            0
xu1.int04                              1.93686
z                                   2.2901e-08
xu1.net_1                            0.0537845
xu1.net_3                              1.45303
xu1.sel1_n                             1.93686
xu1.net_0                              1.93686
xu1.net_2                              1.93686
vfix_s#branch                                0
vfix_i1#branch                               0
vin#branch                                   0
vdd#branch                        -2.76525e-10

 Reference value :  2.29514e-08
 Reference value :  5.67436e-08
 Reference value :  9.30836e-08
 Reference value :  1.30485e-07
 Reference value :  1.66800e-07
 Reference value :  2.03774e-07
 Reference value :  2.40829e-07
 Reference value :  2.76860e-07
 Reference value :  3.14550e-07
No. of Data Rows : 68032

  Measurements for Transient Analysis

tplh                =  1.44357e-09 targ=  2.82016e-08 trig=  2.67581e-08
tphl                =  2.23644e-09 targ=  1.04511e-07 trig=  1.02274e-07
i_vdd_avg           =  -1.80305e-06 from=  1.00000e-08 to=  3.30005e-07
power_avg_uw        =  3.49227e+00


Total analysis time (seconds) = 3.24643

Total elapsed time (seconds) = 3.336 

Total DRAM available = 16384.000 MB.
DRAM currently available =  141.422 MB.
Maximum ngspice program size =   17.047 MB.
Current ngspice program size =    8.406 MB.

