
Note: No compatibility mode selected!


Circuit: GF180MCU library cell nor2_1 A1_to_ZN__A2=0

Doing analysis at TEMP = 32.825023 and TNOM = 27.000000

Using SPARSE 1.3 as Direct Linear Solver

Initial Transient Solution
--------------------------

Node                                   Voltage
----                                   -------
vdd                                    1.80429
a1                                           0
a2                                           0
zn                                     1.80429
xu1.net_0                              1.80429
vfix_a2#branch                               0
vin#branch                                   0
vdd#branch                        -7.24539e-12

 Reference value :  9.28071e-08
 Reference value :  2.29082e-07
No. of Data Rows : 68032

  Measurements for Transient Analysis

tphl                =  2.47613e-09 targ=  2.73109e-08 trig=  2.48348e-08
tplh                =  7.54432e-09 targ=  1.04049e-07 trig=  9.65044e-08
i_vdd_avg           =  -1.82352e-06 from=  1.00000e-08 to=  3.30002e-07
power_avg_uw        =  3.29015e+00


Total analysis time (seconds) = 0.672365

Total elapsed time (seconds) = 0.748 

Total DRAM available = 16384.000 MB.
DRAM currently available =  441.891 MB.
Maximum ngspice program size =   17.281 MB.
Current ngspice program size =   17.281 MB.

