
Note: No compatibility mode selected!


Circuit: GF180MCU library cell mux2_4 I0_to_Z__I1=0,S=0

Doing analysis at TEMP = 63.037305 and TNOM = 27.000000

Using SPARSE 1.3 as Direct Linear Solver

Initial Transient Solution
--------------------------

Node                                   Voltage
----                                   -------
vdd                                    1.90461
i0                                           0
i1                                           0
s                                            0
xu1.int04                              1.90461
z                                  9.51592e-09
xu1.net_1                            0.0487711
xu1.net_3                              1.42586
xu1.sel1_n                             1.90461
xu1.net_0                              1.90461
xu1.net_2                              1.90461
vfix_s#branch                                0
vfix_i1#branch                               0
vin#branch                                   0
vdd#branch                        -4.13818e-11

 Reference value :  2.11514e-08
 Reference value :  5.60620e-08
 Reference value :  9.16970e-08
 Reference value :  1.28392e-07
 Reference value :  1.64627e-07
 Reference value :  1.99942e-07
 Reference value :  2.36957e-07
 Reference value :  2.71092e-07
 Reference value :  3.10187e-07
No. of Data Rows : 68032

  Measurements for Transient Analysis

tplh                =  9.38276e-10 targ=  2.67030e-08 trig=  2.57648e-08
tphl                =  1.57292e-09 targ=  1.00867e-07 trig=  9.92943e-08
i_vdd_avg           =  -7.21934e-07 from=  1.00000e-08 to=  3.30002e-07
power_avg_uw        =  1.37501e+00


Total analysis time (seconds) = 2.63045

Total elapsed time (seconds) = 2.715 

Total DRAM available = 16384.000 MB.
DRAM currently available =  144.422 MB.
Maximum ngspice program size =   16.297 MB.
Current ngspice program size =   16.297 MB.

