
Note: No compatibility mode selected!


Circuit: GF180MCU library cell nor2_4 A1_to_ZN__A2=0

Doing analysis at TEMP = 60.263978 and TNOM = 27.000000

Using SPARSE 1.3 as Direct Linear Solver

Initial Transient Solution
--------------------------

Node                                   Voltage
----                                   -------
vdd                                    1.94278
a1                                           0
a2                                           0
zn                                     1.94278
xu1.net_0_0                            1.94278
xu1.net_0_1                            1.94278
xu1.net_0_2                            1.94278
xu1.net_0_3                            1.94278
vfix_a2#branch                               0
vin#branch                                   0
vdd#branch                        -1.01269e-10

 Reference value :  2.75875e-08
 Reference value :  6.89903e-08
 Reference value :  1.08950e-07
 Reference value :  1.49723e-07
 Reference value :  1.91068e-07
 Reference value :  2.31660e-07
 Reference value :  2.72460e-07
 Reference value :  3.12343e-07
No. of Data Rows : 68034

  Measurements for Transient Analysis

tphl                =  4.18936e-10 targ=  3.02478e-08 trig=  2.98289e-08
tplh                =  2.79526e-09 targ=  1.14282e-07 trig=  1.11487e-07
i_vdd_avg           =  -1.32644e-06 from=  1.00000e-08 to=  3.30003e-07
power_avg_uw        =  2.57699e+00


Total analysis time (seconds) = 2.45392

Total elapsed time (seconds) = 2.537 

Total DRAM available = 16384.000 MB.
DRAM currently available =   89.750 MB.
Maximum ngspice program size =   17.609 MB.
Current ngspice program size =   17.609 MB.

