
Note: No compatibility mode selected!


Circuit: GF180MCU library cell nand2_4 A1_to_ZN__A2=1

Doing analysis at TEMP = -14.166190 and TNOM = 27.000000

Using SPARSE 1.3 as Direct Linear Solver

Initial Transient Solution
--------------------------

Node                                   Voltage
----                                   -------
vdd                                    1.70564
a1                                           0
a2                                     1.70564
xu1.net_0_0                        1.42886e-10
zn                                     1.70564
xu1.net_0_1                        1.42886e-10
xu1.net_0_2                        1.42886e-10
xu1.net_0_3                        1.42886e-10
vfix_a2#branch                               0
vin#branch                                   0
vdd#branch                        -7.00393e-12

 Reference value :  3.53441e-08
 Reference value :  8.41141e-08
 Reference value :  1.27411e-07
 Reference value :  1.71241e-07
 Reference value :  2.10594e-07
 Reference value :  2.50679e-07
 Reference value :  2.90676e-07
 Reference value :  3.29381e-07
No. of Data Rows : 68030

  Measurements for Transient Analysis

tphl                =  9.53158e-10 targ=  3.04789e-08 trig=  2.95258e-08
tplh                =  2.65002e-09 targ=  1.13227e-07 trig=  1.10577e-07
i_vdd_avg           =  -8.48212e-07 from=  1.00000e-08 to=  3.30001e-07
power_avg_uw        =  1.44675e+00


Total analysis time (seconds) = 2.20865

Total elapsed time (seconds) = 2.272 

Total DRAM available = 16384.000 MB.
DRAM currently available =  119.234 MB.
Maximum ngspice program size =   18.219 MB.
Current ngspice program size =   18.219 MB.

