
Note: No compatibility mode selected!


Circuit: GF180MCU library cell aoi21_4 A1_to_ZN__A2=1,B=0

Doing analysis at TEMP = 57.236925 and TNOM = 27.000000

Using SPARSE 1.3 as Direct Linear Solver

Initial Transient Solution
--------------------------

Node                                   Voltage
----                                   -------
vdd                                    1.79127
a1                                           0
a2                                     1.79127
b                                            0
xu1.net_0_0                        3.86734e-08
zn                                     1.79127
xu1.net_0_1                        3.86734e-08
xu1.net_0_2                        3.86734e-08
xu1.net_0_3                        3.86734e-08
xu1.net_1                              1.79127
vfix_b#branch                                0
vfix_a2#branch                               0
vin#branch                                   0
vdd#branch                        -8.44458e-11

 Reference value :  1.92064e-08
 Reference value :  4.71684e-08
 Reference value :  7.46934e-08
 Reference value :  1.02663e-07
 Reference value :  1.30154e-07
 Reference value :  1.58994e-07
 Reference value :  1.87778e-07
 Reference value :  2.15538e-07
 Reference value :  2.43428e-07
 Reference value :  2.72049e-07
 Reference value :  2.99879e-07
 Reference value :  3.27729e-07
No. of Data Rows : 68032

  Measurements for Transient Analysis

tphl                =  1.70293e-09 targ=  2.83934e-08 trig=  2.66905e-08
tplh                =  3.51243e-09 targ=  1.05584e-07 trig=  1.02071e-07
i_vdd_avg           =  -2.20639e-06 from=  1.00000e-08 to=  3.30004e-07
power_avg_uw        =  3.95224e+00


Total analysis time (seconds) = 3.34382

Total elapsed time (seconds) = 3.424 

Total DRAM available = 16384.000 MB.
DRAM currently available =  447.875 MB.
Maximum ngspice program size =   17.219 MB.
Current ngspice program size =   17.219 MB.

