
Note: No compatibility mode selected!


Circuit: GF180MCU library cell inv_4 I_to_ZN

Doing analysis at TEMP = 81.382404 and TNOM = 27.000000

Using SPARSE 1.3 as Direct Linear Solver

Initial Transient Solution
--------------------------

Node                                   Voltage
----                                   -------
vdd                                    1.93211
i                                            0
zn                                     1.93211
vin#branch                                   0
vdd#branch                         -1.4243e-10

 Reference value :  6.50526e-08
 Reference value :  1.53798e-07
 Reference value :  2.34213e-07
 Reference value :  3.14378e-07
No. of Data Rows : 68032

  Measurements for Transient Analysis

tphl                =  -3.38694e-10 targ=  2.72963e-08 trig=  2.76350e-08
tplh                =  8.75707e-10 targ=  1.05781e-07 trig=  1.04905e-07
i_vdd_avg           =  -7.13266e-07 from=  1.00000e-08 to=  3.30003e-07
power_avg_uw        =  1.37811e+00


Total analysis time (seconds) = 1.15603

Total elapsed time (seconds) = 1.218 

Total DRAM available = 16384.000 MB.
DRAM currently available =  149.766 MB.
Maximum ngspice program size =   17.469 MB.
Current ngspice program size =   17.469 MB.

