
Note: No compatibility mode selected!


Circuit: GF180MCU library cell aoi21_4 A1_to_ZN__A2=1,B=0

Doing analysis at TEMP = 73.325474 and TNOM = 27.000000

Using SPARSE 1.3 as Direct Linear Solver

Initial Transient Solution
--------------------------

Node                                   Voltage
----                                   -------
vdd                                    1.97386
a1                                           0
a2                                     1.97386
b                                            0
xu1.net_0_0                        9.81624e-08
zn                                     1.97386
xu1.net_0_1                        9.81624e-08
xu1.net_0_2                        9.81624e-08
xu1.net_0_3                        9.81624e-08
xu1.net_1                              1.97386
vfix_b#branch                                0
vfix_a2#branch                               0
vin#branch                                   0
vdd#branch                        -2.02815e-10

 Reference value :  1.78664e-08
 Reference value :  4.45541e-08
 Reference value :  7.20841e-08
 Reference value :  9.89907e-08
 Reference value :  1.25626e-07
 Reference value :  1.53226e-07
 Reference value :  1.80121e-07
 Reference value :  2.09304e-07
 Reference value :  2.35849e-07
 Reference value :  2.64286e-07
 Reference value :  2.92441e-07
 Reference value :  3.20766e-07
No. of Data Rows : 68030

  Measurements for Transient Analysis

tphl                =  1.09632e-09 targ=  2.62596e-08 trig=  2.51633e-08
tplh                =  2.27077e-09 targ=  9.97607e-08 trig=  9.74899e-08
i_vdd_avg           =  -2.15735e-06 from=  1.00000e-08 to=  3.30001e-07
power_avg_uw        =  4.25831e+00


Total analysis time (seconds) = 3.37652

Total elapsed time (seconds) = 3.467 

Total DRAM available = 16384.000 MB.
DRAM currently available =  123.406 MB.
Maximum ngspice program size =   15.250 MB.
Current ngspice program size =   15.250 MB.

