
Note: No compatibility mode selected!


Circuit: GF180MCU library cell nor2_1 A1_to_ZN__A2=0

Doing analysis at TEMP = -24.468270 and TNOM = 27.000000

Using SPARSE 1.3 as Direct Linear Solver

Initial Transient Solution
--------------------------

Node                                   Voltage
----                                   -------
vdd                                     1.9382
a1                                           0
a2                                           0
zn                                      1.9382
xu1.net_0                               1.9382
vfix_a2#branch                               0
vin#branch                                   0
vdd#branch                        -3.92803e-12

 Reference value :  9.59678e-08
 Reference value :  2.33858e-07
No. of Data Rows : 68032

  Measurements for Transient Analysis

tphl                =  4.17046e-09 targ=  3.28106e-08 trig=  2.86402e-08
tplh                =  9.24578e-09 targ=  1.17166e-07 trig=  1.07920e-07
i_vdd_avg           =  -2.48305e-06 from=  1.00000e-08 to=  3.30003e-07
power_avg_uw        =  4.81265e+00


Total analysis time (seconds) = 0.670622

Total elapsed time (seconds) = 0.753 

Total DRAM available = 16384.000 MB.
DRAM currently available =  163.766 MB.
Maximum ngspice program size =   17.109 MB.
Current ngspice program size =   17.109 MB.

