
Note: No compatibility mode selected!


Circuit: GF180MCU library cell nor2_4 A1_to_ZN__A2=0

Doing analysis at TEMP = 104.459960 and TNOM = 27.000000

Using SPARSE 1.3 as Direct Linear Solver

Initial Transient Solution
--------------------------

Node                                   Voltage
----                                   -------
vdd                                    1.71787
a1                                           0
a2                                           0
zn                                     1.71787
xu1.net_0_0                            1.71787
xu1.net_0_1                            1.71787
xu1.net_0_2                            1.71787
xu1.net_0_3                            1.71787
vfix_a2#branch                               0
vin#branch                                   0
vdd#branch                        -7.31734e-10

 Reference value :  2.76225e-08
 Reference value :  6.90567e-08
 Reference value :  1.09501e-07
 Reference value :  1.52506e-07
 Reference value :  1.93962e-07
 Reference value :  2.33522e-07
 Reference value :  2.74316e-07
 Reference value :  3.14961e-07
No. of Data Rows : 68032

  Measurements for Transient Analysis

tphl                =  4.17610e-10 targ=  2.67422e-08 trig=  2.63246e-08
tplh                =  1.45643e-09 targ=  1.02430e-07 trig=  1.00974e-07
i_vdd_avg           =  -5.13070e-07 from=  1.00000e-08 to=  3.30001e-07
power_avg_uw        =  8.81388e-01


Total analysis time (seconds) = 2.28685

Total elapsed time (seconds) = 2.364 

Total DRAM available = 16384.000 MB.
DRAM currently available =  113.141 MB.
Maximum ngspice program size =   16.516 MB.
Current ngspice program size =   16.516 MB.

