
Note: No compatibility mode selected!


Circuit: GF180MCU library cell mux2_1 I0_to_Z__I1=0,S=0

Doing analysis at TEMP = 17.901546 and TNOM = 27.000000

Using SPARSE 1.3 as Direct Linear Solver

Initial Transient Solution
--------------------------

Node                                   Voltage
----                                   -------
vdd                                    1.93868
i0                                           0
i1                                           0
s                                            0
xu1.int04                              1.93868
z                                  7.92962e-09
xu1.net_1                            0.0423445
xu1.net_3                              1.46499
xu1.sel1_n                             1.93868
xu1.net_0                              1.93868
xu1.net_2                              1.93868
vfix_s#branch                                0
vfix_i1#branch                               0
vin#branch                                   0
vdd#branch                        -1.51694e-11

 Reference value :  3.85144e-08
 Reference value :  9.17194e-08
 Reference value :  1.44921e-07
 Reference value :  1.96704e-07
 Reference value :  2.47989e-07
 Reference value :  3.00561e-07
No. of Data Rows : 68030

  Measurements for Transient Analysis

tplh                =  1.73376e-09 targ=  3.01797e-08 trig=  2.84460e-08
tphl                =  2.75673e-09 targ=  1.10095e-07 trig=  1.07338e-07
i_vdd_avg           =  -1.08920e-06 from=  1.00000e-08 to=  3.30001e-07
power_avg_uw        =  2.11161e+00


Total analysis time (seconds) = 1.78602

Total elapsed time (seconds) = 1.865 

Total DRAM available = 16384.000 MB.
DRAM currently available =  124.109 MB.
Maximum ngspice program size =   18.062 MB.
Current ngspice program size =   18.062 MB.

