
Note: No compatibility mode selected!


Circuit: GF180MCU library cell inv_1 I_to_ZN

Doing analysis at TEMP = 35.843069 and TNOM = 27.000000

Using SPARSE 1.3 as Direct Linear Solver

Initial Transient Solution
--------------------------

Node                                   Voltage
----                                   -------
vdd                                    1.66884
i                                            0
zn                                     1.66884
vin#branch                                   0
vdd#branch                        -3.68552e-12

 Reference value :  1.44844e-07
No. of Data Rows : 68032

  Measurements for Transient Analysis

tphl                =  9.37266e-10 targ=  2.50976e-08 trig=  2.41604e-08
tplh                =  2.12421e-09 targ=  9.66053e-08 trig=  9.44811e-08
i_vdd_avg           =  -8.48406e-07 from=  1.00000e-08 to=  3.30004e-07
power_avg_uw        =  1.41586e+00


Total analysis time (seconds) = 0.444189

Total elapsed time (seconds) = 0.525 

Total DRAM available = 16384.000 MB.
DRAM currently available =  144.422 MB.
Maximum ngspice program size =   17.531 MB.
Current ngspice program size =   17.531 MB.

