
Note: No compatibility mode selected!


Circuit: GF180MCU library cell inv_1 I_to_ZN

Doing analysis at TEMP = 13.833617 and TNOM = 27.000000

Using SPARSE 1.3 as Direct Linear Solver

Initial Transient Solution
--------------------------

Node                                   Voltage
----                                   -------
vdd                                    1.71442
i                                            0
zn                                     1.71442
vin#branch                                   0
vdd#branch                        -2.13464e-12

 Reference value :  1.81249e-07
No. of Data Rows : 68034

  Measurements for Transient Analysis

tphl                =  4.23919e-09 targ=  3.41233e-08 trig=  2.98841e-08
tplh                =  7.53180e-09 targ=  1.19184e-07 trig=  1.11652e-07
i_vdd_avg           =  -1.99495e-06 from=  1.00000e-08 to=  3.30004e-07
power_avg_uw        =  3.42017e+00


Total analysis time (seconds) = 0.378274

Total elapsed time (seconds) = 0.442 

Total DRAM available = 16384.000 MB.
DRAM currently available =  309.703 MB.
Maximum ngspice program size =   17.109 MB.
Current ngspice program size =   17.109 MB.

