
Note: No compatibility mode selected!


Circuit: GF180MCU library cell nand2_1 A1_to_ZN__A2=1

Doing analysis at TEMP = -1.858042 and TNOM = 27.000000

Using SPARSE 1.3 as Direct Linear Solver

Initial Transient Solution
--------------------------

Node                                   Voltage
----                                   -------
vdd                                    1.94864
a1                                           0
a2                                     1.94864
xu1.net_0                           4.4791e-10
zn                                     1.94864
vfix_a2#branch                               0
vin#branch                                   0
vdd#branch                        -2.08307e-12

 Reference value :  9.15918e-08
 Reference value :  2.24957e-07
No. of Data Rows : 68032

  Measurements for Transient Analysis

tphl                =  3.01755e-09 targ=  2.92672e-08 trig=  2.62496e-08
tplh                =  4.18854e-09 targ=  1.04937e-07 trig=  1.00749e-07
i_vdd_avg           =  -1.88236e-06 from=  1.00000e-08 to=  3.30001e-07
power_avg_uw        =  3.66805e+00


Total analysis time (seconds) = 0.711105

Total elapsed time (seconds) = 0.794 

Total DRAM available = 16384.000 MB.
DRAM currently available =  113.297 MB.
Maximum ngspice program size =   17.828 MB.
Current ngspice program size =   17.828 MB.

