
Note: No compatibility mode selected!


Circuit: GF180MCU library cell nand3_1 A1_to_ZN__A2=1,A3=1

Doing analysis at TEMP = 109.832500 and TNOM = 27.000000

Using SPARSE 1.3 as Direct Linear Solver

Initial Transient Solution
--------------------------

Node                                   Voltage
----                                   -------
vdd                                    1.96711
a1                                           0
a2                                     1.96711
a3                                     1.96711
xu1.net_1                          6.34487e-07
xu1.net_0                          1.26897e-06
zn                                     1.96711
vfix_a3#branch                               0
vfix_a2#branch                               0
vin#branch                                   0
vdd#branch                        -1.34213e-10

 Reference value :  8.76464e-08
 Reference value :  1.98241e-07
 Reference value :  3.00505e-07
No. of Data Rows : 68032

  Measurements for Transient Analysis

tphl                =  4.19331e-09 targ=  3.40353e-08 trig=  2.98420e-08
tplh                =  5.52319e-09 targ=  1.17049e-07 trig=  1.11526e-07
i_vdd_avg           =  -1.37340e-06 from=  1.00000e-08 to=  3.30000e-07
power_avg_uw        =  2.70163e+00


Total analysis time (seconds) = 0.871782

Total elapsed time (seconds) = 0.936 

Total DRAM available = 16384.000 MB.
DRAM currently available =  309.703 MB.
Maximum ngspice program size =   17.469 MB.
Current ngspice program size =   17.469 MB.

