
Note: No compatibility mode selected!


Circuit: GF180MCU library cell oai21_4 A1_to_ZN__A2=0,B=1

Doing analysis at TEMP = -3.288710 and TNOM = 27.000000

Using SPARSE 1.3 as Direct Linear Solver

Initial Transient Solution
--------------------------

Node                                   Voltage
----                                   -------
vdd                                    1.85178
a1                                           0
a2                                           0
b                                      1.85178
zn                                     1.85178
xu1.net_0                          7.93873e-10
xu1.net_1_0                            1.85178
xu1.net_1_1                            1.85178
xu1.net_1_2                            1.85178
xu1.net_1_3                            1.85178
vfix_b#branch                                0
vfix_a2#branch                               0
vin#branch                                   0
vdd#branch                        -1.57312e-11

 Reference value :  1.80514e-08
 Reference value :  4.69034e-08
 Reference value :  7.49534e-08
 Reference value :  1.02973e-07
 Reference value :  1.30879e-07
 Reference value :  1.59014e-07
 Reference value :  1.85943e-07
 Reference value :  2.13588e-07
 Reference value :  2.40943e-07
 Reference value :  2.67568e-07
 Reference value :  2.96169e-07
 Reference value :  3.24129e-07
No. of Data Rows : 68032

  Measurements for Transient Analysis

tphl                =  1.00257e-09 targ=  2.96255e-08 trig=  2.86230e-08
tplh                =  3.16594e-09 targ=  1.11035e-07 trig=  1.07869e-07
i_vdd_avg           =  -1.29429e-06 from=  1.00000e-08 to=  3.30004e-07
power_avg_uw        =  2.39674e+00


Total analysis time (seconds) = 3.88983

Total elapsed time (seconds) = 3.973 

Total DRAM available = 16384.000 MB.
DRAM currently available =  112.000 MB.
Maximum ngspice program size =   16.625 MB.
Current ngspice program size =   16.625 MB.

