
Note: No compatibility mode selected!


Circuit: GF180MCU library cell mux2_4 I0_to_Z__I1=0,S=0

Doing analysis at TEMP = 91.040976 and TNOM = 27.000000

Using SPARSE 1.3 as Direct Linear Solver

Initial Transient Solution
--------------------------

Node                                   Voltage
----                                   -------
vdd                                    1.77188
i0                                           0
i1                                           0
s                                            0
xu1.int04                              1.77188
z                                  1.39238e-08
xu1.net_1                            0.0501849
xu1.net_3                              1.31989
xu1.sel1_n                             1.77188
xu1.net_0                              1.77188
xu1.net_2                              1.77188
vfix_s#branch                                0
vfix_i1#branch                               0
vin#branch                                   0
vdd#branch                        -1.19627e-10

 Reference value :  2.78983e-08
 Reference value :  6.50833e-08
 Reference value :  1.01059e-07
 Reference value :  1.37049e-07
 Reference value :  1.75299e-07
 Reference value :  2.12318e-07
 Reference value :  2.48998e-07
 Reference value :  2.83909e-07
 Reference value :  3.21004e-07
No. of Data Rows : 68032

  Measurements for Transient Analysis

tplh                =  1.65767e-09 targ=  2.62406e-08 trig=  2.45829e-08
tphl                =  1.83992e-09 targ=  9.75886e-08 trig=  9.57487e-08
i_vdd_avg           =  -1.99375e-06 from=  1.00000e-08 to=  3.30004e-07
power_avg_uw        =  3.53268e+00


Total analysis time (seconds) = 2.50416

Total elapsed time (seconds) = 2.594 

Total DRAM available = 16384.000 MB.
DRAM currently available =  119.344 MB.
Maximum ngspice program size =   18.453 MB.
Current ngspice program size =   18.453 MB.

