
Note: No compatibility mode selected!


Circuit: GF180MCU library cell nor2_1 A1_to_ZN__A2=0

Doing analysis at TEMP = 73.517610 and TNOM = 27.000000

Using SPARSE 1.3 as Direct Linear Solver

Initial Transient Solution
--------------------------

Node                                   Voltage
----                                   -------
vdd                                    1.89668
a1                                           0
a2                                           0
zn                                     1.89668
xu1.net_0                              1.89668
vfix_a2#branch                               0
vin#branch                                   0
vdd#branch                        -4.72936e-11

 Reference value :  9.09514e-08
 Reference value :  2.23421e-07
No. of Data Rows : 68032

  Measurements for Transient Analysis

tphl                =  2.30193e-09 targ=  2.84014e-08 trig=  2.60995e-08
tplh                =  5.69260e-09 targ=  1.05991e-07 trig=  1.00298e-07
i_vdd_avg           =  -1.32474e-06 from=  1.00000e-08 to=  3.30000e-07
power_avg_uw        =  2.51261e+00


Total analysis time (seconds) = 0.69131

Total elapsed time (seconds) = 0.767 

Total DRAM available = 16384.000 MB.
DRAM currently available =  124.109 MB.
Maximum ngspice program size =   16.734 MB.
Current ngspice program size =   16.734 MB.

