
Note: No compatibility mode selected!


Circuit: GF180MCU library cell inv_1 I_to_ZN

Doing analysis at TEMP = 52.627574 and TNOM = 27.000000

Using SPARSE 1.3 as Direct Linear Solver

Initial Transient Solution
--------------------------

Node                                   Voltage
----                                   -------
vdd                                     1.7406
i                                            0
zn                                      1.7406
vin#branch                                   0
vdd#branch                        -7.88767e-12

 Reference value :  1.40185e-07
No. of Data Rows : 68032

  Measurements for Transient Analysis

tphl                =  1.72656e-09 targ=  2.71196e-08 trig=  2.53931e-08
tplh                =  3.31869e-09 targ=  1.01498e-07 trig=  9.81792e-08
i_vdd_avg           =  -1.19249e-06 from=  1.00000e-08 to=  3.30005e-07
power_avg_uw        =  2.07565e+00


Total analysis time (seconds) = 0.425205

Total elapsed time (seconds) = 0.516 

Total DRAM available = 16384.000 MB.
DRAM currently available =  136.750 MB.
Maximum ngspice program size =   16.359 MB.
Current ngspice program size =   16.359 MB.

