
Note: No compatibility mode selected!


Circuit: NOR2 seed characterization sample 4402035

Doing analysis at TEMP = -17.905600 and TNOM = 27.000000

Using SPARSE 1.3 as Direct Linear Solver

Initial Transient Solution
--------------------------

Node                                   Voltage
----                                   -------
vdd                                    1.65882
in                                           0
out                                    1.65882
pmid                                   1.65882
vin#branch                                   0
vdd#branch                        -3.64186e-12

 Reference value :  3.99090e-08
 Reference value :  9.37100e-08
No. of Data Rows : 60041

  Measurements for Transient Analysis

tphl                =  1.89129e-10 targ=  2.39163e-09 trig=  2.20250e-09
tplh                =  5.86514e-10 targ=  2.31940e-08 trig=  2.26075e-08
i_vdd_avg           =  -4.73717e-06 from=  5.00000e-09 to=  1.10001e-07
power_avg_uw        =  7.85812e+00


Total analysis time (seconds) = 0.542782

Total elapsed time (seconds) = 0.619 

Total DRAM available = 16384.000 MB.
DRAM currently available =  242.641 MB.
Maximum ngspice program size =   12.562 MB.
Current ngspice program size =   11.906 MB.

