
Note: No compatibility mode selected!


Circuit: XOR2 seed characterization sample 4402029

Doing analysis at TEMP = -13.870400 and TNOM = 27.000000

Using SPARSE 1.3 as Direct Linear Solver

Initial Transient Solution
--------------------------

Node                                   Voltage
----                                   -------
vdd                                    1.85897
in                                           0
b                                      1.85897
abar                                   1.85897
bbar                               7.59323e-10
out                                    1.85897
vb#branch                                    0
vin#branch                         2.73235e-12
vdd#branch                        -1.27484e-11

 Reference value :  2.31915e-08
 Reference value :  5.55563e-08
 Reference value :  9.01723e-08
No. of Data Rows : 60047

  Measurements for Transient Analysis

tphl                =  1.72445e-10 targ=  2.32208e-09 trig=  2.14963e-09
tplh                =  2.03965e-10 targ=  2.26529e-08 trig=  2.24489e-08
i_vdd_avg           =  -5.06157e-06 from=  5.00000e-09 to=  1.10002e-07
power_avg_uw        =  9.40930e+00


Total analysis time (seconds) = 0.859714

Total elapsed time (seconds) = 0.938 

Total DRAM available = 16384.000 MB.
DRAM currently available =  249.750 MB.
Maximum ngspice program size =   12.578 MB.
Current ngspice program size =   11.781 MB.

