
Note: No compatibility mode selected!


Circuit: NAND2 seed characterization sample 4402016

Doing analysis at TEMP = -16.967200 and TNOM = 27.000000

Using SPARSE 1.3 as Direct Linear Solver

Initial Transient Solution
--------------------------

Node                                   Voltage
----                                   -------
vdd                                    1.87139
in                                           0
out                                    1.87139
nmid                                 0.0263281
vin#branch                                   0
vdd#branch                         -1.9655e-12

 Reference value :  3.88392e-08
 Reference value :  9.28691e-08
No. of Data Rows : 60044

  Measurements for Transient Analysis

tphl                =  3.37557e-10 targ=  2.55560e-09 trig=  2.21804e-09
tplh                =  2.03814e-10 targ=  2.28579e-08 trig=  2.26541e-08
i_vdd_avg           =  -5.09402e-06 from=  5.00000e-09 to=  1.10001e-07
power_avg_uw        =  9.53290e+00


Total analysis time (seconds) = 0.519897

Total elapsed time (seconds) = 0.598 

Total DRAM available = 16384.000 MB.
DRAM currently available =  266.531 MB.
Maximum ngspice program size =   12.562 MB.
Current ngspice program size =   12.062 MB.

