
Note: No compatibility mode selected!


Circuit: INV seed characterization sample 4402015

Doing analysis at TEMP = 37.841600 and TNOM = 27.000000

Using SPARSE 1.3 as Direct Linear Solver

Initial Transient Solution
--------------------------

Node                                   Voltage
----                                   -------
vdd                                    1.97512
in                                           0
out                                    1.97512
vin#branch                                   0
vdd#branch                        -2.53982e-11

 Reference value :  6.08549e-08
No. of Data Rows : 60044

  Measurements for Transient Analysis

tphl                =  5.21339e-11 targ=  2.19610e-09 trig=  2.14396e-09
tplh                =  6.57052e-11 targ=  2.24976e-08 trig=  2.24319e-08
i_vdd_avg           =  -8.53721e-07 from=  5.00000e-09 to=  1.10001e-07
power_avg_uw        =  1.68620e+00


Total analysis time (seconds) = 0.341627

Total elapsed time (seconds) = 0.420 

Total DRAM available = 16384.000 MB.
DRAM currently available =  266.531 MB.
Maximum ngspice program size =   12.562 MB.
Current ngspice program size =   11.844 MB.

