
Note: No compatibility mode selected!


Circuit: INV seed characterization sample 4402013

Doing analysis at TEMP = 82.421400 and TNOM = 27.000000

Using SPARSE 1.3 as Direct Linear Solver

Initial Transient Solution
--------------------------

Node                                   Voltage
----                                   -------
vdd                                    1.80699
in                                           0
out                                    1.80699
vin#branch                                   0
vdd#branch                          -3.518e-10

 Reference value :  6.16163e-08
No. of Data Rows : 60047

  Measurements for Transient Analysis

tphl                =  2.07399e-10 targ=  2.44602e-09 trig=  2.23863e-09
tplh                =  2.09768e-10 targ=  2.29256e-08 trig=  2.27159e-08
i_vdd_avg           =  -4.38484e-06 from=  5.00000e-09 to=  1.10002e-07
power_avg_uw        =  7.92336e+00


Total analysis time (seconds) = 0.342976

Total elapsed time (seconds) = 0.419 

Total DRAM available = 16384.000 MB.
DRAM currently available =  266.531 MB.
Maximum ngspice program size =   12.562 MB.
Current ngspice program size =   11.719 MB.

