
Note: No compatibility mode selected!


Circuit: NOR2 seed characterization sample 4402038

Doing analysis at TEMP = 45.276300 and TNOM = 27.000000

Using SPARSE 1.3 as Direct Linear Solver

Initial Transient Solution
--------------------------

Node                                   Voltage
----                                   -------
vdd                                    1.92382
in                                           0
out                                    1.92382
pmid                                   1.92382
vin#branch                                   0
vdd#branch                        -5.34362e-11

 Reference value :  4.48915e-08
 Reference value :  1.04834e-07
No. of Data Rows : 60041

  Measurements for Transient Analysis

tphl                =  9.35230e-11 targ=  2.23079e-09 trig=  2.13727e-09
tplh                =  2.94302e-10 targ=  2.27061e-08 trig=  2.24118e-08
i_vdd_avg           =  -2.41999e-06 from=  5.00000e-09 to=  1.10000e-07
power_avg_uw        =  4.65563e+00


Total analysis time (seconds) = 0.481596

Total elapsed time (seconds) = 0.557 

Total DRAM available = 16384.000 MB.
DRAM currently available =  247.438 MB.
Maximum ngspice program size =   12.594 MB.
Current ngspice program size =   12.062 MB.

