
Note: No compatibility mode selected!


Circuit: NAND2 seed characterization sample 4402044

Doing analysis at TEMP = 90.199000 and TNOM = 27.000000

Using SPARSE 1.3 as Direct Linear Solver

Initial Transient Solution
--------------------------

Node                                   Voltage
----                                   -------
vdd                                    1.63678
in                                           0
out                                    1.63678
nmid                                 0.0541191
vin#branch                                   0
vdd#branch                        -8.40069e-11

 Reference value :  4.52264e-08
 Reference value :  1.06010e-07
No. of Data Rows : 60047

  Measurements for Transient Analysis

tphl                =  3.02313e-10 targ=  2.35400e-09 trig=  2.05168e-09
tplh                =  9.70022e-11 targ=  2.22520e-08 trig=  2.21550e-08
i_vdd_avg           =  -4.27404e-06 from=  5.00000e-09 to=  1.10002e-07
power_avg_uw        =  6.99567e+00


Total analysis time (seconds) = 0.47409

Total elapsed time (seconds) = 0.550 

Total DRAM available = 16384.000 MB.
DRAM currently available =  249.688 MB.
Maximum ngspice program size =   13.359 MB.
Current ngspice program size =   12.891 MB.

