
Note: No compatibility mode selected!


Circuit: NAND2 seed characterization sample 4402032

Doing analysis at TEMP = 36.820000 and TNOM = 27.000000

Using SPARSE 1.3 as Direct Linear Solver

Initial Transient Solution
--------------------------

Node                                   Voltage
----                                   -------
vdd                                    1.72194
in                                           0
out                                    1.72194
nmid                                 0.0528111
vin#branch                                   0
vdd#branch                        -6.98777e-12

 Reference value :  4.11832e-08
 Reference value :  9.77111e-08
No. of Data Rows : 60044

  Measurements for Transient Analysis

tphl                =  7.58124e-11 targ=  2.10486e-09 trig=  2.02904e-09
tplh                =  3.37214e-11 targ=  2.21209e-08 trig=  2.20871e-08
i_vdd_avg           =  -1.65526e-06 from=  5.00000e-09 to=  1.10001e-07
power_avg_uw        =  2.85025e+00


Total analysis time (seconds) = 0.508771

Total elapsed time (seconds) = 0.585 

Total DRAM available = 16384.000 MB.
DRAM currently available =  237.562 MB.
Maximum ngspice program size =   12.562 MB.
Current ngspice program size =   11.906 MB.

