
Note: No compatibility mode selected!


Circuit: NOR2 seed characterization sample 4402028

Doing analysis at TEMP = 22.919900 and TNOM = 27.000000

Using SPARSE 1.3 as Direct Linear Solver

Initial Transient Solution
--------------------------

Node                                   Voltage
----                                   -------
vdd                                    1.68038
in                                           0
out                                    1.68038
pmid                                   1.68038
vin#branch                                   0
vdd#branch                         -6.9195e-12

 Reference value :  4.27784e-08
 Reference value :  1.01892e-07
No. of Data Rows : 60047

  Measurements for Transient Analysis

tphl                =  8.69085e-11 targ=  2.27859e-09 trig=  2.19168e-09
tplh                =  2.22679e-10 targ=  2.27977e-08 trig=  2.25750e-08
i_vdd_avg           =  -5.14468e-07 from=  5.00000e-09 to=  1.10002e-07
power_avg_uw        =  8.64502e-01


Total analysis time (seconds) = 0.490445

Total elapsed time (seconds) = 0.566 

Total DRAM available = 16384.000 MB.
DRAM currently available =  266.672 MB.
Maximum ngspice program size =   12.562 MB.
Current ngspice program size =   12.141 MB.

