
Note: No compatibility mode selected!


Circuit: XOR2 seed characterization sample 4402034

Doing analysis at TEMP = 61.598800 and TNOM = 27.000000

Using SPARSE 1.3 as Direct Linear Solver

Initial Transient Solution
--------------------------

Node                                   Voltage
----                                   -------
vdd                                    1.77231
in                                           0
b                                      1.77231
abar                                   1.77231
bbar                               8.16238e-09
out                                    1.77231
vb#branch                                    0
vin#branch                          1.9075e-10
vdd#branch                        -3.47214e-10

 Reference value :  2.25979e-08
 Reference value :  5.37224e-08
 Reference value :  8.53304e-08
No. of Data Rows : 60047

  Measurements for Transient Analysis

tphl                =  2.46603e-10 targ=  2.38532e-09 trig=  2.13872e-09
tplh                =  2.63607e-10 targ=  2.26798e-08 trig=  2.24162e-08
i_vdd_avg           =  -6.31244e-06 from=  5.00000e-09 to=  1.10002e-07
power_avg_uw        =  1.11876e+01


Total analysis time (seconds) = 0.886502

Total elapsed time (seconds) = 0.965 

Total DRAM available = 16384.000 MB.
DRAM currently available =  242.641 MB.
Maximum ngspice program size =   12.578 MB.
Current ngspice program size =   11.781 MB.

