
Note: No compatibility mode selected!


Circuit: INV seed characterization sample 4402001

Doing analysis at TEMP = -6.070160 and TNOM = 27.000000

Using SPARSE 1.3 as Direct Linear Solver

Initial Transient Solution
--------------------------

Node                                   Voltage
----                                   -------
vdd                                     1.9288
in                                           0
out                                     1.9288
vin#branch                                   0
vdd#branch                        -2.15583e-12

 Reference value :  7.48982e-08
No. of Data Rows : 60041

  Measurements for Transient Analysis

tphl                =  2.08813e-10 targ=  2.45811e-09 trig=  2.24929e-09
tplh                =  2.91062e-10 targ=  2.30389e-08 trig=  2.27479e-08
i_vdd_avg           =  -1.21749e-06 from=  5.00000e-09 to=  1.10000e-07
power_avg_uw        =  2.34829e+00


Total analysis time (seconds) = 0.286994

Total elapsed time (seconds) = 0.356 

Total DRAM available = 16384.000 MB.
DRAM currently available =  260.984 MB.
Maximum ngspice program size =   12.562 MB.
Current ngspice program size =   11.906 MB.

