
Note: No compatibility mode selected!


Circuit: XOR2 seed characterization sample 4402018

Doing analysis at TEMP = 80.605700 and TNOM = 27.000000

Using SPARSE 1.3 as Direct Linear Solver

Initial Transient Solution
--------------------------

Node                                   Voltage
----                                   -------
vdd                                    1.64292
in                                           0
b                                      1.64292
abar                                   1.64292
bbar                               1.94158e-08
out                                    1.64292
vb#branch                                    0
vin#branch                         6.14544e-10
vdd#branch                        -1.10465e-09

 Reference value :  2.33553e-08
 Reference value :  5.52982e-08
 Reference value :  8.72242e-08
No. of Data Rows : 60047

  Measurements for Transient Analysis

tphl                =  1.70031e-10 targ=  2.27961e-09 trig=  2.10958e-09
tplh                =  2.33024e-10 targ=  2.25618e-08 trig=  2.23287e-08
i_vdd_avg           =  -4.16649e-06 from=  5.00000e-09 to=  1.10001e-07
power_avg_uw        =  6.84521e+00


Total analysis time (seconds) = 0.902813

Total elapsed time (seconds) = 0.983 

Total DRAM available = 16384.000 MB.
DRAM currently available =  264.594 MB.
Maximum ngspice program size =   12.578 MB.
Current ngspice program size =   11.891 MB.

