
Note: No compatibility mode selected!


Circuit: NAND2 seed characterization sample 4402022

Doing analysis at TEMP = -14.382900 and TNOM = 27.000000

Using SPARSE 1.3 as Direct Linear Solver

Initial Transient Solution
--------------------------

Node                                   Voltage
----                                   -------
vdd                                     1.8234
in                                           0
out                                     1.8234
nmid                                 0.0302764
vin#branch                                   0
vdd#branch                         -1.9389e-12

 Reference value :  3.93324e-08
 Reference value :  9.23457e-08
No. of Data Rows : 60041

  Measurements for Transient Analysis

tphl                =  1.20968e-10 targ=  2.29933e-09 trig=  2.17836e-09
tplh                =  8.27256e-11 targ=  2.26178e-08 trig=  2.25351e-08
i_vdd_avg           =  -1.11385e-06 from=  5.00000e-09 to=  1.10000e-07
power_avg_uw        =  2.03100e+00


Total analysis time (seconds) = 0.543721

Total elapsed time (seconds) = 0.621 

Total DRAM available = 16384.000 MB.
DRAM currently available =  269.312 MB.
Maximum ngspice program size =   12.797 MB.
Current ngspice program size =   12.641 MB.

