
Note: No compatibility mode selected!


Circuit: NOR2 seed characterization sample 4402008

Doing analysis at TEMP = 90.664800 and TNOM = 27.000000

Using SPARSE 1.3 as Direct Linear Solver

Initial Transient Solution
--------------------------

Node                                   Voltage
----                                   -------
vdd                                    1.64458
in                                           0
out                                    1.64458
pmid                                   1.64458
vin#branch                                   0
vdd#branch                        -3.62093e-10

 Reference value :  4.36571e-08
 Reference value :  1.00733e-07
No. of Data Rows : 60044

  Measurements for Transient Analysis

tphl                =  7.66918e-11 targ=  2.23972e-09 trig=  2.16303e-09
tplh                =  2.19785e-10 targ=  2.27089e-08 trig=  2.24891e-08
i_vdd_avg           =  -8.66012e-07 from=  5.00000e-09 to=  1.10001e-07
power_avg_uw        =  1.42423e+00


Total analysis time (seconds) = 0.510814

Total elapsed time (seconds) = 0.586 

Total DRAM available = 16384.000 MB.
DRAM currently available =  240.953 MB.
Maximum ngspice program size =   12.672 MB.
Current ngspice program size =   12.672 MB.

