
Note: No compatibility mode selected!


Circuit: NAND2 seed characterization sample 4402036

Doing analysis at TEMP = 99.195600 and TNOM = 27.000000

Using SPARSE 1.3 as Direct Linear Solver

Initial Transient Solution
--------------------------

Node                                   Voltage
----                                   -------
vdd                                    1.84725
in                                           0
out                                    1.84725
nmid                                 0.0591508
vin#branch                                   0
vdd#branch                        -1.14172e-10

 Reference value :  3.87550e-08
 Reference value :  9.19110e-08
No. of Data Rows : 60044

  Measurements for Transient Analysis

tphl                =  2.37141e-10 targ=  2.46914e-09 trig=  2.23200e-09
tplh                =  1.24714e-10 targ=  2.28207e-08 trig=  2.26960e-08
i_vdd_avg           =  -2.38107e-06 from=  5.00000e-09 to=  1.10001e-07
power_avg_uw        =  4.39843e+00


Total analysis time (seconds) = 0.550219

Total elapsed time (seconds) = 0.629 

Total DRAM available = 16384.000 MB.
DRAM currently available =  242.641 MB.
Maximum ngspice program size =   14.125 MB.
Current ngspice program size =   14.125 MB.

