
Note: No compatibility mode selected!


Circuit: INV seed characterization sample 4402027

Doing analysis at TEMP = 56.395200 and TNOM = 27.000000

Using SPARSE 1.3 as Direct Linear Solver

Initial Transient Solution
--------------------------

Node                                   Voltage
----                                   -------
vdd                                    1.72191
in                                           0
out                                    1.72191
vin#branch                                   0
vdd#branch                        -9.30557e-11

 Reference value :  6.76382e-08
No. of Data Rows : 60041

  Measurements for Transient Analysis

tphl                =  6.40607e-11 targ=  2.23135e-09 trig=  2.16729e-09
tplh                =  8.34094e-11 targ=  2.25853e-08 trig=  2.25019e-08
i_vdd_avg           =  -9.82374e-07 from=  5.00000e-09 to=  1.10000e-07
power_avg_uw        =  1.69156e+00


Total analysis time (seconds) = 0.30553

Total elapsed time (seconds) = 0.381 

Total DRAM available = 16384.000 MB.
DRAM currently available =  266.672 MB.
Maximum ngspice program size =   12.609 MB.
Current ngspice program size =   11.891 MB.

