
Note: Compatibility modes selected: hs a


Circuit: SKY130 library cell nor2_4 A_to_Y__B=0

option SCALE: Scale is set to 1e-06 for instance and model parameters
Doing analysis at TEMP = -18.418099 and TNOM = 27.000000

Using KLU as Direct Linear Solver
 Reference value :  0.00000e+00
 Reference value :  2.41075e-08
 Reference value :  4.78155e-08
 Reference value :  8.34255e-08
 Reference value :  1.32023e-07
 Reference value :  1.80828e-07
 Reference value :  2.36835e-07
 Reference value :  2.89783e-07
No. of Data Rows : 68034

  Measurements for Transient Analysis

tphl                =  -7.97887e-11 targ=  2.66867e-08 trig=  2.67665e-08
tplh                =  1.25367e-09 targ=  1.03553e-07 trig=  1.02299e-07
i_vdd_avg           =  -2.20477e-06 from=  1.00000e-08 to=  3.30003e-07
power_avg_uw        =  4.35770e+00


Total analysis time (seconds) = 749.638

Total elapsed time (seconds) = 749.908 

Total DRAM available = 16384.000 MB.
DRAM currently available =  225.156 MB.
Maximum ngspice program size =   25.453 MB.
Current ngspice program size =    9.375 MB.

