
Note: Compatibility modes selected: hs a


Circuit: SKY130 library cell xor2_4 A_to_X__B=0

option SCALE: Scale is set to 1e-06 for instance and model parameters
Doing analysis at TEMP = -9.646123 and TNOM = 27.000000

Using KLU as Direct Linear Solver
 Reference value :  7.95140e-09
 Reference value :  2.79230e-08
 Reference value :  4.87030e-08
 Reference value :  6.90980e-08
 Reference value :  8.83830e-08
 Reference value :  1.08549e-07
 Reference value :  1.26489e-07
 Reference value :  1.48029e-07
 Reference value :  1.68874e-07
 Reference value :  1.89233e-07
 Reference value :  2.11128e-07
 Reference value :  2.31078e-07
 Reference value :  2.51933e-07
 Reference value :  2.71684e-07
 Reference value :  2.93534e-07
 Reference value :  3.13549e-07
 Reference value :  3.34284e-07
No. of Data Rows : 68032

  Measurements for Transient Analysis

tplh                =  3.29147e-10 targ=  2.47769e-08 trig=  2.44478e-08
tphl                =  3.01935e-10 targ=  9.56452e-08 trig=  9.53433e-08
i_vdd_avg           =  -1.34585e-06 from=  1.00000e-08 to=  3.30004e-07
power_avg_uw        =  2.35367e+00


Total analysis time (seconds) = 4.24877

Total elapsed time (seconds) = 4.401 

Total DRAM available = 16384.000 MB.
DRAM currently available =  206.281 MB.
Maximum ngspice program size =   27.938 MB.
Current ngspice program size =   27.938 MB.

