
Note: Compatibility modes selected: hs a


Circuit: SKY130 library cell aoi21_1 A1_to_Y__A2=1,B1=0

option SCALE: Scale is set to 1e-06 for instance and model parameters
Doing analysis at TEMP = 114.151220 and TNOM = 27.000000

Using KLU as Direct Linear Solver
 Reference value :  5.23060e-08
 Reference value :  1.70885e-07
 Reference value :  2.91635e-07
No. of Data Rows : 68034

  Measurements for Transient Analysis

tphl                =  1.11321e-09 targ=  2.93100e-08 trig=  2.81968e-08
tplh                =  2.52176e-09 targ=  1.09112e-07 trig=  1.06590e-07
i_vdd_avg           =  -2.12465e-06 from=  1.00000e-08 to=  3.30005e-07
power_avg_uw        =  4.06238e+00


Total analysis time (seconds) = 0.88933

Total elapsed time (seconds) = 1.055 

Total DRAM available = 16384.000 MB.
DRAM currently available =  221.766 MB.
Maximum ngspice program size =   24.453 MB.
Current ngspice program size =   24.453 MB.

