
Note: Compatibility modes selected: hs a


Circuit: SKY130 library cell nor2_1 A_to_Y__B=0

option SCALE: Scale is set to 1e-06 for instance and model parameters
Doing analysis at TEMP = -9.026288 and TNOM = 27.000000

Using KLU as Direct Linear Solver
 Reference value :  7.13108e-08
 Reference value :  2.39436e-07
No. of Data Rows : 68034

  Measurements for Transient Analysis

tphl                =  2.59351e-10 targ=  2.70010e-08 trig=  2.67416e-08
tplh                =  1.76425e-09 targ=  1.03989e-07 trig=  1.02225e-07
i_vdd_avg           =  -8.39605e-07 from=  1.00000e-08 to=  3.30004e-07
power_avg_uw        =  1.58009e+00


Total analysis time (seconds) = 0.537171

Total elapsed time (seconds) = 0.670 

Total DRAM available = 16384.000 MB.
DRAM currently available =  232.234 MB.
Maximum ngspice program size =   24.891 MB.
Current ngspice program size =   24.891 MB.

