
Note: Compatibility modes selected: hs a


Circuit: SKY130 library cell nor2_1 A_to_Y__B=0

option SCALE: Scale is set to 1e-06 for instance and model parameters
Doing analysis at TEMP = 30.786146 and TNOM = 27.000000

Using KLU as Direct Linear Solver
 Reference value :  0.00000e+00
 Reference value :  8.00349e-08
 Reference value :  1.61212e-07
 Reference value :  2.41615e-07
 Reference value :  3.21767e-07
No. of Data Rows : 68030

  Measurements for Transient Analysis

tphl                =  5.49144e-10 targ=  2.55429e-08 trig=  2.49937e-08
tplh                =  1.52783e-09 targ=  9.85090e-08 trig=  9.69811e-08
i_vdd_avg           =  -1.63324e-06 from=  1.00000e-08 to=  3.30002e-07
power_avg_uw        =  3.19321e+00


Total analysis time (seconds) = 1.08257

Total elapsed time (seconds) = 1.332 

Total DRAM available = 16384.000 MB.
DRAM currently available =   97.734 MB.
Maximum ngspice program size =   26.391 MB.
Current ngspice program size =   26.391 MB.

