
Note: Compatibility modes selected: hs a


Circuit: SKY130 library cell xor2_1 A_to_X__B=0

option SCALE: Scale is set to 1e-06 for instance and model parameters
Doing analysis at TEMP = 112.211240 and TNOM = 27.000000

Using KLU as Direct Linear Solver
 Reference value :  0.00000e+00
 Reference value :  3.71198e-08
 Reference value :  7.43798e-08
 Reference value :  1.10300e-07
 Reference value :  1.46957e-07
 Reference value :  1.83472e-07
 Reference value :  2.19930e-07
 Reference value :  2.56590e-07
 Reference value :  2.91972e-07
 Reference value :  3.28487e-07
No. of Data Rows : 68030

  Measurements for Transient Analysis

tplh                =  8.83734e-10 targ=  2.97949e-08 trig=  2.89112e-08
tphl                =  1.45148e-09 targ=  1.10185e-07 trig=  1.08733e-07
i_vdd_avg           =  -2.47696e-06 from=  1.00000e-08 to=  3.30002e-07
power_avg_uw        =  4.48048e+00


Total analysis time (seconds) = 2.41942

Total elapsed time (seconds) = 2.669 

Total DRAM available = 16384.000 MB.
DRAM currently available =  122.812 MB.
Maximum ngspice program size =   27.609 MB.
Current ngspice program size =   27.609 MB.

