
Note: Compatibility modes selected: hs a


Circuit: SKY130 library cell mux2_4 A0_to_X__A1=0,S=0

option SCALE: Scale is set to 1e-06 for instance and model parameters
Doing analysis at TEMP = 80.899592 and TNOM = 27.000000

Using KLU as Direct Linear Solver
 Reference value :  1.51364e-08
 Reference value :  6.25060e-08
 Reference value :  1.04889e-07
 Reference value :  1.46744e-07
 Reference value :  1.89951e-07
 Reference value :  2.35901e-07
 Reference value :  2.80039e-07
 Reference value :  3.24439e-07
No. of Data Rows : 68034

  Measurements for Transient Analysis

tplh                =  1.24203e-10 targ=  2.62509e-08 trig=  2.61267e-08
tphl                =  7.87334e-10 targ=  1.01168e-07 trig=  1.00380e-07
i_vdd_avg           =  -1.84519e-06 from=  1.00000e-08 to=  3.30004e-07
power_avg_uw        =  3.60692e+00


Total analysis time (seconds) = 1.98678

Total elapsed time (seconds) = 2.143 

Total DRAM available = 16384.000 MB.
DRAM currently available =  232.234 MB.
Maximum ngspice program size =   25.734 MB.
Current ngspice program size =   25.734 MB.

