Note: Starting dynamic gmin stepping
Note: Dynamic gmin stepping completed

Note: Compatibility modes selected: hs a


Circuit: SKY130 library cell mux2_1 A0_to_X__A1=0,S=0

option SCALE: Scale is set to 1e-06 for instance and model parameters
Doing analysis at TEMP = 3.659374 and TNOM = 27.000000

Using KLU as Direct Linear Solver
 Reference value :  1.43640e-09
 Reference value :  3.48785e-08
 Reference value :  6.60535e-08
 Reference value :  9.58335e-08
 Reference value :  1.26015e-07
 Reference value :  1.55885e-07
 Reference value :  1.86853e-07
 Reference value :  2.17034e-07
 Reference value :  2.47594e-07
 Reference value :  2.78580e-07
 Reference value :  3.09140e-07
 Reference value :  3.39740e-07
No. of Data Rows : 68032

  Measurements for Transient Analysis

tplh                =  -4.30821e-10 targ=  2.83347e-08 trig=  2.87655e-08
tphl                =  1.28621e-09 targ=  1.09583e-07 trig=  1.08297e-07
i_vdd_avg           =  -5.35218e-07 from=  1.00000e-08 to=  3.30005e-07
power_avg_uw        =  1.05530e+00


Total analysis time (seconds) = 2.9547

Total elapsed time (seconds) = 3.186 

Total DRAM available = 16384.000 MB.
DRAM currently available =   96.484 MB.
Maximum ngspice program size =   26.016 MB.
Current ngspice program size =   26.016 MB.

