
Note: Compatibility modes selected: hs a


Circuit: SKY130 library cell aoi21_4 A1_to_Y__A2=1,B1=0

option SCALE: Scale is set to 1e-06 for instance and model parameters
Doing analysis at TEMP = -32.844521 and TNOM = 27.000000

Using KLU as Direct Linear Solver
 Reference value :  1.16400e-10
 Reference value :  1.81164e-08
 Reference value :  3.46964e-08
 Reference value :  5.10914e-08
 Reference value :  6.73064e-08
 Reference value :  8.35864e-08
 Reference value :  9.97064e-08
 Reference value :  1.15715e-07
 Reference value :  1.32015e-07
 Reference value :  1.48280e-07
 Reference value :  1.64615e-07
 Reference value :  1.81085e-07
 Reference value :  1.97406e-07
 Reference value :  2.13901e-07
 Reference value :  2.30161e-07
 Reference value :  2.46681e-07
 Reference value :  2.63171e-07
 Reference value :  2.79405e-07
 Reference value :  2.95795e-07
 Reference value :  3.11900e-07
 Reference value :  3.28565e-07
No. of Data Rows : 68032

  Measurements for Transient Analysis

tphl                =  5.69463e-10 targ=  2.75914e-08 trig=  2.70220e-08
tplh                =  2.29451e-09 targ=  1.05360e-07 trig=  1.03066e-07
i_vdd_avg           =  -2.07022e-06 from=  1.00000e-08 to=  3.30000e-07
power_avg_uw        =  3.38594e+00


Total analysis time (seconds) = 5.44646

Total elapsed time (seconds) = 5.690 

Total DRAM available = 16384.000 MB.
DRAM currently available =   74.266 MB.
Maximum ngspice program size =   28.875 MB.
Current ngspice program size =   28.875 MB.

