
Note: Compatibility modes selected: hs a


Circuit: SKY130 library cell oai21_4 A1_to_Y__A2=0,B1=1

option SCALE: Scale is set to 1e-06 for instance and model parameters
Doing analysis at TEMP = 21.993762 and TNOM = 27.000000

Using KLU as Direct Linear Solver
 Reference value :  0.00000e+00
 Reference value :  1.67514e-08
 Reference value :  3.31051e-08
 Reference value :  4.97451e-08
 Reference value :  6.63251e-08
 Reference value :  8.26051e-08
 Reference value :  9.91501e-08
 Reference value :  1.15573e-07
 Reference value :  1.32063e-07
 Reference value :  1.48713e-07
 Reference value :  1.64998e-07
 Reference value :  1.81353e-07
 Reference value :  1.97800e-07
 Reference value :  2.14125e-07
 Reference value :  2.30670e-07
 Reference value :  2.47240e-07
 Reference value :  2.63443e-07
 Reference value :  2.79753e-07
 Reference value :  2.96013e-07
 Reference value :  3.12443e-07
 Reference value :  3.28998e-07
No. of Data Rows : 68034

  Measurements for Transient Analysis

tphl                =  -1.51804e-10 targ=  2.57920e-08 trig=  2.59438e-08
tplh                =  5.28456e-10 targ=  1.00360e-07 trig=  9.98314e-08
i_vdd_avg           =  -3.77648e-07 from=  1.00000e-08 to=  3.30003e-07
power_avg_uw        =  6.49626e-01


Total analysis time (seconds) = 5.40651

Total elapsed time (seconds) = 5.689 

Total DRAM available = 16384.000 MB.
DRAM currently available =  115.078 MB.
Maximum ngspice program size =   28.094 MB.
Current ngspice program size =   28.094 MB.

