
Note: Compatibility modes selected: hs a


Circuit: SKY130 library cell nand3_1 A_to_Y__B=1,C=1

option SCALE: Scale is set to 1e-06 for instance and model parameters
Doing analysis at TEMP = -7.091009 and TNOM = 27.000000

Using KLU as Direct Linear Solver
 Reference value :  0.00000e+00
 Reference value :  5.76489e-08
 Reference value :  1.15090e-07
 Reference value :  1.72590e-07
 Reference value :  2.31554e-07
 Reference value :  2.89930e-07
No. of Data Rows : 68030

  Measurements for Transient Analysis

tphl                =  1.29376e-09 targ=  2.72495e-08 trig=  2.59557e-08
tplh                =  2.00039e-09 targ=  1.01867e-07 trig=  9.98671e-08
i_vdd_avg           =  -2.20726e-06 from=  1.00000e-08 to=  3.30000e-07
power_avg_uw        =  4.10313e+00


Total analysis time (seconds) = 1.53395

Total elapsed time (seconds) = 1.805 

Total DRAM available = 16384.000 MB.
DRAM currently available =  110.531 MB.
Maximum ngspice program size =   26.078 MB.
Current ngspice program size =   26.078 MB.

