
Note: Compatibility modes selected: hs a


Circuit: SKY130 library cell oai21_1 A1_to_Y__A2=0,B1=1

option SCALE: Scale is set to 1e-06 for instance and model parameters
Doing analysis at TEMP = -28.289791 and TNOM = 27.000000

Using KLU as Direct Linear Solver
 Reference value :  0.00000e+00
 Reference value :  5.71414e-08
 Reference value :  1.14345e-07
 Reference value :  1.71000e-07
 Reference value :  2.27666e-07
 Reference value :  2.85105e-07
No. of Data Rows : 68032

  Measurements for Transient Analysis

tphl                =  9.76196e-10 targ=  2.72282e-08 trig=  2.62520e-08
tplh                =  2.69120e-09 targ=  1.03447e-07 trig=  1.00756e-07
i_vdd_avg           =  -2.26840e-06 from=  1.00000e-08 to=  3.30000e-07
power_avg_uw        =  4.44277e+00


Total analysis time (seconds) = 1.53257

Total elapsed time (seconds) = 1.795 

Total DRAM available = 16384.000 MB.
DRAM currently available =   71.688 MB.
Maximum ngspice program size =   24.625 MB.
Current ngspice program size =   24.625 MB.

