
Note: Compatibility modes selected: hs a


Circuit: SKY130 library cell nor2_4 A_to_Y__B=0

option SCALE: Scale is set to 1e-06 for instance and model parameters
Doing analysis at TEMP = 89.757804 and TNOM = 27.000000

Using KLU as Direct Linear Solver
 Reference value :  1.79064e-08
 Reference value :  6.60302e-08
 Reference value :  1.12183e-07
 Reference value :  1.58993e-07
 Reference value :  2.06985e-07
 Reference value :  2.58895e-07
 Reference value :  3.10108e-07
No. of Data Rows : 68034

  Measurements for Transient Analysis

tphl                =  3.03591e-10 targ=  2.57874e-08 trig=  2.54838e-08
tplh                =  9.88226e-10 targ=  9.94398e-08 trig=  9.84515e-08
i_vdd_avg           =  -2.33861e-06 from=  1.00000e-08 to=  3.30003e-07
power_avg_uw        =  4.12740e+00


Total analysis time (seconds) = 1.91663

Total elapsed time (seconds) = 2.074 

Total DRAM available = 16384.000 MB.
DRAM currently available =  226.609 MB.
Maximum ngspice program size =   25.547 MB.
Current ngspice program size =   25.547 MB.

