
Note: Compatibility modes selected: hs a


Circuit: SKY130 library cell oai21_4 A1_to_Y__A2=0,B1=1

option SCALE: Scale is set to 1e-06 for instance and model parameters
Doing analysis at TEMP = 111.505410 and TNOM = 27.000000

Using KLU as Direct Linear Solver
 Reference value :  1.47614e-08
 Reference value :  4.77988e-08
 Reference value :  8.31788e-08
 Reference value :  1.17095e-07
 Reference value :  1.53265e-07
 Reference value :  1.88763e-07
 Reference value :  2.22974e-07
 Reference value :  2.56069e-07
 Reference value :  2.88365e-07
 Reference value :  3.23220e-07
No. of Data Rows : 68030

  Measurements for Transient Analysis

tphl                =  -1.19815e-10 targ=  2.75233e-08 trig=  2.76432e-08
tplh                =  1.01595e-09 targ=  1.05945e-07 trig=  1.04929e-07
i_vdd_avg           =  -3.33821e-06 from=  1.00000e-08 to=  3.30000e-07
power_avg_uw        =  6.46707e+00


Total analysis time (seconds) = 2.83835

Total elapsed time (seconds) = 3.017 

Total DRAM available = 16384.000 MB.
DRAM currently available =  259.047 MB.
Maximum ngspice program size =   25.562 MB.
Current ngspice program size =   25.562 MB.

