
Note: Compatibility modes selected: hs a


Circuit: SKY130 library cell xor2_1 A_to_X__B=0

option SCALE: Scale is set to 1e-06 for instance and model parameters
Doing analysis at TEMP = -29.686809 and TNOM = 27.000000

Using KLU as Direct Linear Solver
 Reference value :  0.00000e+00
 Reference value :  3.57158e-08
 Reference value :  7.26758e-08
 Reference value :  1.09394e-07
 Reference value :  1.47234e-07
 Reference value :  1.84238e-07
 Reference value :  2.20326e-07
 Reference value :  2.57486e-07
 Reference value :  2.94189e-07
 Reference value :  3.31049e-07
No. of Data Rows : 68034

  Measurements for Transient Analysis

tplh                =  4.00215e-10 targ=  2.53894e-08 trig=  2.49892e-08
tphl                =  5.16862e-10 targ=  9.74843e-08 trig=  9.69675e-08
i_vdd_avg           =  -3.75597e-07 from=  1.00000e-08 to=  3.30004e-07
power_avg_uw        =  6.35596e-01


Total analysis time (seconds) = 2.37277

Total elapsed time (seconds) = 2.646 

Total DRAM available = 16384.000 MB.
DRAM currently available =   96.266 MB.
Maximum ngspice program size =   25.969 MB.
Current ngspice program size =   25.969 MB.

