
Note: Compatibility modes selected: hs a


Circuit: SKY130 library cell oai21_1 A1_to_Y__A2=0,B1=1

option SCALE: Scale is set to 1e-06 for instance and model parameters
Doing analysis at TEMP = 50.129581 and TNOM = 27.000000

Using KLU as Direct Linear Solver
 Reference value :  4.36798e-08
 Reference value :  1.47632e-07
 Reference value :  2.69805e-07
No. of Data Rows : 68030

  Measurements for Transient Analysis

tphl                =  7.31128e-10 targ=  2.92098e-08 trig=  2.84787e-08
tplh                =  2.56450e-09 targ=  1.10000e-07 trig=  1.07436e-07
i_vdd_avg           =  -8.87429e-07 from=  1.00000e-08 to=  3.30002e-07
power_avg_uw        =  1.49850e+00


Total analysis time (seconds) = 0.81355

Total elapsed time (seconds) = 1.067 

Total DRAM available = 16384.000 MB.
DRAM currently available =  197.422 MB.
Maximum ngspice program size =   25.234 MB.
Current ngspice program size =   25.234 MB.

