
Note: Compatibility modes selected: hs a


Circuit: SKY130 library cell xor2_4 A_to_X__B=0

option SCALE: Scale is set to 1e-06 for instance and model parameters
Doing analysis at TEMP = -24.179036 and TNOM = 27.000000

Using KLU as Direct Linear Solver
 Reference value :  0.00000e+00
 Reference value :  9.90140e-09
 Reference value :  1.98464e-08
 Reference value :  2.96723e-08
 Reference value :  3.97723e-08
 Reference value :  4.98073e-08
 Reference value :  5.97673e-08
 Reference value :  6.97273e-08
 Reference value :  7.95473e-08
 Reference value :  8.93773e-08
 Reference value :  9.91923e-08
 Reference value :  1.09082e-07
 Reference value :  1.19082e-07
 Reference value :  1.28977e-07
 Reference value :  1.39052e-07
 Reference value :  1.49182e-07
 Reference value :  1.59162e-07
 Reference value :  1.69127e-07
 Reference value :  1.78967e-07
 Reference value :  1.88777e-07
 Reference value :  1.98737e-07
 Reference value :  2.08527e-07
 Reference value :  2.18332e-07
 Reference value :  2.28287e-07
 Reference value :  2.42467e-07
 Reference value :  2.62302e-07
 Reference value :  2.82172e-07
 Reference value :  3.05207e-07
 Reference value :  3.26417e-07
No. of Data Rows : 68032

  Measurements for Transient Analysis

tplh                =  7.29161e-11 targ=  2.61528e-08 trig=  2.60799e-08
tphl                =  7.80424e-10 targ=  1.01020e-07 trig=  1.00240e-07
i_vdd_avg           =  -6.15509e-07 from=  1.00000e-08 to=  3.30002e-07
power_avg_uw        =  1.00075e+00


Total analysis time (seconds) = 755.017

Total elapsed time (seconds) = 755.316 

Total DRAM available = 16384.000 MB.
DRAM currently available =  225.156 MB.
Maximum ngspice program size =   27.859 MB.
Current ngspice program size =   10.938 MB.

