
Note: Compatibility modes selected: hs a


Circuit: SKY130 library cell aoi21_1 A1_to_Y__A2=1,B1=0

option SCALE: Scale is set to 1e-06 for instance and model parameters
Doing analysis at TEMP = 59.219061 and TNOM = 27.000000

Using KLU as Direct Linear Solver
 Reference value :  4.07393e-08
 Reference value :  1.57451e-07
 Reference value :  2.73466e-07
No. of Data Rows : 68030

  Measurements for Transient Analysis

tphl                =  5.14526e-10 targ=  2.70129e-08 trig=  2.64984e-08
tplh                =  1.53031e-09 targ=  1.03026e-07 trig=  1.01495e-07
i_vdd_avg           =  -8.01997e-07 from=  1.00000e-08 to=  3.30001e-07
power_avg_uw        =  1.44174e+00


Total analysis time (seconds) = 0.749136

Total elapsed time (seconds) = 0.898 

Total DRAM available = 16384.000 MB.
DRAM currently available =  247.109 MB.
Maximum ngspice program size =   24.984 MB.
Current ngspice program size =   24.984 MB.

