
Note: Compatibility modes selected: hs a


Circuit: SKY130 library cell nand2_1 A_to_Y__B=1

option SCALE: Scale is set to 1e-06 for instance and model parameters
Doing analysis at TEMP = 16.000906 and TNOM = 27.000000

Using KLU as Direct Linear Solver
 Reference value :  6.81246e-08
 Reference value :  2.33665e-07
No. of Data Rows : 68030

  Measurements for Transient Analysis

tphl                =  1.43984e-09 targ=  2.91909e-08 trig=  2.77511e-08
tplh                =  2.97470e-09 targ=  1.08228e-07 trig=  1.05253e-07
i_vdd_avg           =  -1.96371e-06 from=  1.00000e-08 to=  3.30002e-07
power_avg_uw        =  3.39537e+00


Total analysis time (seconds) = 0.521509

Total elapsed time (seconds) = 0.662 

Total DRAM available = 16384.000 MB.
DRAM currently available =  202.859 MB.
Maximum ngspice program size =   25.453 MB.
Current ngspice program size =   25.453 MB.

