
Note: Compatibility modes selected: hs a


Circuit: SKY130 library cell nor2_1 A_to_Y__B=0

option SCALE: Scale is set to 1e-06 for instance and model parameters
Doing analysis at TEMP = 119.354680 and TNOM = 27.000000

Using KLU as Direct Linear Solver
 Reference value :  0.00000e+00
 Reference value :  7.85300e-08
 Reference value :  1.58253e-07
 Reference value :  2.38575e-07
 Reference value :  3.18703e-07
No. of Data Rows : 68034

  Measurements for Transient Analysis

tphl                =  -1.82422e-11 targ=  2.74605e-08 trig=  2.74788e-08
tplh                =  9.83674e-10 targ=  1.05420e-07 trig=  1.04436e-07
i_vdd_avg           =  -4.27180e-07 from=  1.00000e-08 to=  3.30003e-07
power_avg_uw        =  7.11216e-01


Total analysis time (seconds) = 1.16033

Total elapsed time (seconds) = 1.440 

Total DRAM available = 16384.000 MB.
DRAM currently available =   96.484 MB.
Maximum ngspice program size =   25.672 MB.
Current ngspice program size =   25.672 MB.

