
Note: Compatibility modes selected: hs a


Circuit: SKY130 library cell oai21_1 A1_to_Y__A2=0,B1=1

option SCALE: Scale is set to 1e-06 for instance and model parameters
Doing analysis at TEMP = 32.519777 and TNOM = 27.000000

Using KLU as Direct Linear Solver
 Reference value :  0.00000e+00
 Reference value :  1.15367e-07
 Reference value :  2.41477e-07
No. of Data Rows : 68032

  Measurements for Transient Analysis

tphl                =  1.17032e-09 targ=  3.10878e-08 trig=  2.99175e-08
tplh                =  3.92598e-09 targ=  1.15678e-07 trig=  1.11752e-07
i_vdd_avg           =  -1.94101e-06 from=  1.00000e-08 to=  3.30002e-07
power_avg_uw        =  3.51282e+00


Total analysis time (seconds) = 2.01369

Total elapsed time (seconds) = 748.468 

Total DRAM available = 16384.000 MB.
DRAM currently available =  190.969 MB.
Maximum ngspice program size =   20.797 MB.
Current ngspice program size =   19.281 MB.

