
Note: Compatibility modes selected: hs a


Circuit: SKY130 library cell aoi21_4 A1_to_Y__A2=1,B1=0

option SCALE: Scale is set to 1e-06 for instance and model parameters
Doing analysis at TEMP = 75.584882 and TNOM = 27.000000

Using KLU as Direct Linear Solver
 Reference value :  1.15064e-08
 Reference value :  4.43339e-08
 Reference value :  7.85189e-08
 Reference value :  1.12195e-07
 Reference value :  1.45105e-07
 Reference value :  1.77095e-07
 Reference value :  2.11784e-07
 Reference value :  2.45634e-07
 Reference value :  2.78475e-07
 Reference value :  3.10885e-07
No. of Data Rows : 68030

  Measurements for Transient Analysis

tphl                =  2.90590e-10 targ=  2.48088e-08 trig=  2.45182e-08
tplh                =  5.89040e-10 targ=  9.61436e-08 trig=  9.55546e-08
i_vdd_avg           =  -1.49303e-06 from=  1.00000e-08 to=  3.30000e-07
power_avg_uw        =  2.51365e+00


Total analysis time (seconds) = 2.62837

Total elapsed time (seconds) = 2.777 

Total DRAM available = 16384.000 MB.
DRAM currently available =  208.062 MB.
Maximum ngspice program size =   25.875 MB.
Current ngspice program size =   25.875 MB.

