
Note: Compatibility modes selected: hs a


Circuit: SKY130 library cell inv_4 A_to_Y

option SCALE: Scale is set to 1e-06 for instance and model parameters
Doing analysis at TEMP = -24.206365 and TNOM = 27.000000

Using KLU as Direct Linear Solver
 Reference value :  4.07423e-08
 Reference value :  1.34927e-07
 Reference value :  2.29632e-07
 Reference value :  3.27612e-07
No. of Data Rows : 68032

  Measurements for Transient Analysis

tphl                =  2.20532e-10 targ=  2.53604e-08 trig=  2.51399e-08
tplh                =  7.99741e-10 targ=  9.82195e-08 trig=  9.74197e-08
i_vdd_avg           =  -1.51155e-06 from=  1.00000e-08 to=  3.30002e-07
power_avg_uw        =  2.63100e+00


Total analysis time (seconds) = 0.960273

Total elapsed time (seconds) = 1.117 

Total DRAM available = 16384.000 MB.
DRAM currently available =  259.047 MB.
Maximum ngspice program size =   24.922 MB.
Current ngspice program size =   24.922 MB.

