
Note: Compatibility modes selected: hs a


Circuit: SKY130 library cell inv_1 A_to_Y

option SCALE: Scale is set to 1e-06 for instance and model parameters
Doing analysis at TEMP = 124.183570 and TNOM = 27.000000

Using KLU as Direct Linear Solver
 Reference value :  1.03299e-07
No. of Data Rows : 68030

  Measurements for Transient Analysis

tphl                =  6.49931e-10 targ=  2.93857e-08 trig=  2.87358e-08
tplh                =  2.05568e-09 targ=  1.10263e-07 trig=  1.08207e-07
i_vdd_avg           =  -1.94550e-06 from=  1.00000e-08 to=  3.30001e-07
power_avg_uw        =  3.60459e+00


Total analysis time (seconds) = 0.307941

Total elapsed time (seconds) = 0.457 

Total DRAM available = 16384.000 MB.
DRAM currently available =  226.609 MB.
Maximum ngspice program size =   25.359 MB.
Current ngspice program size =   25.359 MB.

