
Note: Compatibility modes selected: hs a


Circuit: SKY130 library cell nand2_4 A_to_Y__B=1

option SCALE: Scale is set to 1e-06 for instance and model parameters
Doing analysis at TEMP = 36.543684 and TNOM = 27.000000

Using KLU as Direct Linear Solver
 Reference value :  2.37464e-08
 Reference value :  7.19042e-08
 Reference value :  1.21146e-07
 Reference value :  1.66606e-07
 Reference value :  2.14049e-07
 Reference value :  2.66996e-07
 Reference value :  3.12756e-07
No. of Data Rows : 68030

  Measurements for Transient Analysis

tphl                =  2.43058e-10 targ=  2.65889e-08 trig=  2.63459e-08
tplh                =  1.01649e-09 targ=  1.02054e-07 trig=  1.01038e-07
i_vdd_avg           =  -2.19684e-06 from=  1.00000e-08 to=  3.30001e-07
power_avg_uw        =  4.01352e+00


Total analysis time (seconds) = 1.93747

Total elapsed time (seconds) = 2.095 

Total DRAM available = 16384.000 MB.
DRAM currently available =  197.422 MB.
Maximum ngspice program size =   27.844 MB.
Current ngspice program size =   27.844 MB.

