
Note: Compatibility modes selected: hs a


Circuit: SKY130 library cell nand3_1 A_to_Y__B=1,C=1

option SCALE: Scale is set to 1e-06 for instance and model parameters
Doing analysis at TEMP = 102.115100 and TNOM = 27.000000

Using KLU as Direct Linear Solver
 Reference value :  0.00000e+00
 Reference value :  5.83521e-08
 Reference value :  1.16537e-07
 Reference value :  1.74812e-07
 Reference value :  2.32727e-07
 Reference value :  2.90402e-07
No. of Data Rows : 68032

  Measurements for Transient Analysis

tphl                =  6.33696e-10 targ=  2.52360e-08 trig=  2.46023e-08
tplh                =  6.96561e-10 targ=  9.65034e-08 trig=  9.58068e-08
i_vdd_avg           =  -9.36734e-07 from=  1.00000e-08 to=  3.30002e-07
power_avg_uw        =  1.64539e+00


Total analysis time (seconds) = 1.49095

Total elapsed time (seconds) = 1.754 

Total DRAM available = 16384.000 MB.
DRAM currently available =   97.734 MB.
Maximum ngspice program size =   24.422 MB.
Current ngspice program size =   24.422 MB.

