
Note: Compatibility modes selected: hs a


Circuit: SKY130 library cell nand2_4 A_to_Y__B=1

option SCALE: Scale is set to 1e-06 for instance and model parameters
Doing analysis at TEMP = 101.842700 and TNOM = 27.000000

Using KLU as Direct Linear Solver
 Reference value :  2.56400e-10
 Reference value :  2.71555e-08
 Reference value :  5.14255e-08
 Reference value :  7.57155e-08
 Reference value :  1.00014e-07
 Reference value :  1.24169e-07
 Reference value :  1.48789e-07
 Reference value :  1.72289e-07
 Reference value :  1.96556e-07
 Reference value :  2.20891e-07
 Reference value :  2.45056e-07
 Reference value :  2.69174e-07
 Reference value :  2.93779e-07
 Reference value :  3.18629e-07
No. of Data Rows : 68034

  Measurements for Transient Analysis

tphl                =  2.24335e-10 targ=  2.44284e-08 trig=  2.42040e-08
tplh                =  2.83722e-10 targ=  9.48958e-08 trig=  9.46121e-08
i_vdd_avg           =  -2.24393e-06 from=  1.00000e-08 to=  3.30004e-07
power_avg_uw        =  4.36459e+00


Total analysis time (seconds) = 3.7092

Total elapsed time (seconds) = 3.947 

Total DRAM available = 16384.000 MB.
DRAM currently available =   75.609 MB.
Maximum ngspice program size =   26.234 MB.
Current ngspice program size =   26.234 MB.

