
Note: Compatibility modes selected: hs a


Circuit: SKY130 library cell xor2_4 A_to_X__B=0

option SCALE: Scale is set to 1e-06 for instance and model parameters
Doing analysis at TEMP = 86.476612 and TNOM = 27.000000

Using KLU as Direct Linear Solver
 Reference value :  8.13140e-09
 Reference value :  2.84475e-08
 Reference value :  5.10451e-08
 Reference value :  7.56451e-08
 Reference value :  1.04075e-07
 Reference value :  1.32673e-07
 Reference value :  1.61038e-07
 Reference value :  1.89588e-07
 Reference value :  2.18525e-07
 Reference value :  2.47515e-07
 Reference value :  2.76463e-07
 Reference value :  3.05558e-07
 Reference value :  3.34633e-07
No. of Data Rows : 68034

  Measurements for Transient Analysis

tplh                =  -1.10814e-10 targ=  2.86355e-08 trig=  2.87463e-08
tphl                =  1.11764e-09 targ=  1.09357e-07 trig=  1.08239e-07
i_vdd_avg           =  -4.41225e-06 from=  1.00000e-08 to=  3.30003e-07
power_avg_uw        =  8.02433e+00


Total analysis time (seconds) = 3.13881

Total elapsed time (seconds) = 3.296 

Total DRAM available = 16384.000 MB.
DRAM currently available =  260.219 MB.
Maximum ngspice program size =   28.188 MB.
Current ngspice program size =   28.188 MB.

