
Note: Compatibility modes selected: hs a


Circuit: SKY130 library cell oai21_1 A1_to_Y__A2=0,B1=1

option SCALE: Scale is set to 1e-06 for instance and model parameters
Doing analysis at TEMP = -6.339587 and TNOM = 27.000000

Using KLU as Direct Linear Solver
 Reference value :  5.18383e-08
 Reference value :  1.68679e-07
 Reference value :  2.84569e-07
No. of Data Rows : 68032

  Measurements for Transient Analysis

tphl                =  4.30029e-10 targ=  2.45604e-08 trig=  2.41304e-08
tplh                =  1.27284e-09 targ=  9.56640e-08 trig=  9.43912e-08
i_vdd_avg           =  -1.54238e-06 from=  1.00000e-08 to=  3.30004e-07
power_avg_uw        =  2.95232e+00


Total analysis time (seconds) = 0.728075

Total elapsed time (seconds) = 0.866 

Total DRAM available = 16384.000 MB.
DRAM currently available =  232.234 MB.
Maximum ngspice program size =   25.156 MB.
Current ngspice program size =   25.156 MB.

