
Note: Compatibility modes selected: hs a


Circuit: SKY130 library cell nand2_1 A_to_Y__B=1

option SCALE: Scale is set to 1e-06 for instance and model parameters
Doing analysis at TEMP = -29.307510 and TNOM = 27.000000

Using KLU as Direct Linear Solver
 Reference value :  0.00000e+00
 Reference value :  8.10290e-08
 Reference value :  1.61921e-07
 Reference value :  2.43429e-07
 Reference value :  3.24891e-07
No. of Data Rows : 68030

  Measurements for Transient Analysis

tphl                =  1.31911e-09 targ=  2.79849e-08 trig=  2.66658e-08
tplh                =  2.68506e-09 targ=  1.04682e-07 trig=  1.01997e-07
i_vdd_avg           =  -1.68591e-06 from=  1.00000e-08 to=  3.30001e-07
power_avg_uw        =  2.79469e+00


Total analysis time (seconds) = 1.06985

Total elapsed time (seconds) = 1.325 

Total DRAM available = 16384.000 MB.
DRAM currently available =  100.078 MB.
Maximum ngspice program size =   25.719 MB.
Current ngspice program size =   25.719 MB.

