
Note: Compatibility modes selected: hs a


Circuit: SKY130 library cell aoi21_4 A1_to_Y__A2=1,B1=0

option SCALE: Scale is set to 1e-06 for instance and model parameters
Doing analysis at TEMP = 4.384116 and TNOM = 27.000000

Using KLU as Direct Linear Solver
 Reference value :  1.56164e-08
 Reference value :  5.05538e-08
 Reference value :  8.69138e-08
 Reference value :  1.22600e-07
 Reference value :  1.54910e-07
 Reference value :  1.89934e-07
 Reference value :  2.24479e-07
 Reference value :  2.58514e-07
 Reference value :  2.90305e-07
 Reference value :  3.26345e-07
No. of Data Rows : 68030

  Measurements for Transient Analysis

tphl                =  -2.56905e-10 targ=  2.59863e-08 trig=  2.62432e-08
tplh                =  5.66345e-10 targ=  1.01296e-07 trig=  1.00730e-07
i_vdd_avg           =  -8.33158e-07 from=  1.00000e-08 to=  3.30000e-07
power_avg_uw        =  1.59307e+00


Total analysis time (seconds) = 2.50092

Total elapsed time (seconds) = 2.640 

Total DRAM available = 16384.000 MB.
DRAM currently available =  209.594 MB.
Maximum ngspice program size =   25.438 MB.
Current ngspice program size =   25.438 MB.

