
Note: Compatibility modes selected: hs a


Circuit: SKY130 library cell inv_4 A_to_Y

option SCALE: Scale is set to 1e-06 for instance and model parameters
Doing analysis at TEMP = 51.413728 and TNOM = 27.000000

Using KLU as Direct Linear Solver
 Reference value :  3.87066e-08
 Reference value :  1.36801e-07
 Reference value :  2.30167e-07
 Reference value :  3.19446e-07
No. of Data Rows : 68032

  Measurements for Transient Analysis

tphl                =  -6.30051e-11 targ=  2.81915e-08 trig=  2.82545e-08
tplh                =  1.33366e-09 targ=  1.08097e-07 trig=  1.06764e-07
i_vdd_avg           =  -1.95436e-06 from=  1.00000e-08 to=  3.30001e-07
power_avg_uw        =  3.34488e+00


Total analysis time (seconds) = 0.922033

Total elapsed time (seconds) = 1.065 

Total DRAM available = 16384.000 MB.
DRAM currently available =  226.203 MB.
Maximum ngspice program size =   26.031 MB.
Current ngspice program size =   26.031 MB.

