
Note: Compatibility modes selected: hs a


Circuit: SKY130 library cell oai21_4 A1_to_Y__A2=0,B1=1

option SCALE: Scale is set to 1e-06 for instance and model parameters
Doing analysis at TEMP = 54.459816 and TNOM = 27.000000

Using KLU as Direct Linear Solver
 Reference value :  1.29414e-08
 Reference value :  4.66447e-08
 Reference value :  8.48747e-08
 Reference value :  1.21507e-07
 Reference value :  1.58547e-07
 Reference value :  2.04260e-07
 Reference value :  2.51835e-07
 Reference value :  2.98227e-07
No. of Data Rows : 68030

  Measurements for Transient Analysis

tphl                =  -1.13183e-10 targ=  2.82279e-08 trig=  2.83411e-08
tplh                =  1.39560e-09 targ=  1.08419e-07 trig=  1.07023e-07
i_vdd_avg           =  -2.15979e-06 from=  1.00000e-08 to=  3.30002e-07
power_avg_uw        =  3.93491e+00


Total analysis time (seconds) = 2.09054

Total elapsed time (seconds) = 2.232 

Total DRAM available = 16384.000 MB.
DRAM currently available =  227.781 MB.
Maximum ngspice program size =   26.234 MB.
Current ngspice program size =   26.234 MB.

