
Note: Compatibility modes selected: hs a


Circuit: SKY130 library cell nor2_4 A_to_Y__B=0

option SCALE: Scale is set to 1e-06 for instance and model parameters
Doing analysis at TEMP = 60.797554 and TNOM = 27.000000

Using KLU as Direct Linear Solver
 Reference value :  1.81364e-08
 Reference value :  6.65658e-08
 Reference value :  1.17074e-07
 Reference value :  1.65769e-07
 Reference value :  2.13231e-07
 Reference value :  2.64116e-07
 Reference value :  3.13449e-07
No. of Data Rows : 68034

  Measurements for Transient Analysis

tphl                =  -2.33884e-10 targ=  2.88128e-08 trig=  2.90467e-08
tplh                =  1.50833e-09 targ=  1.10648e-07 trig=  1.09140e-07
i_vdd_avg           =  -1.57736e-06 from=  1.00000e-08 to=  3.30004e-07
power_avg_uw        =  2.65064e+00


Total analysis time (seconds) = 1.75535

Total elapsed time (seconds) = 1.902 

Total DRAM available = 16384.000 MB.
DRAM currently available =  247.109 MB.
Maximum ngspice program size =   30.297 MB.
Current ngspice program size =   30.297 MB.

