
Note: Compatibility modes selected: hs a


Circuit: SKY130 library cell oai21_4 A1_to_Y__A2=0,B1=1

option SCALE: Scale is set to 1e-06 for instance and model parameters
Doing analysis at TEMP = -39.856885 and TNOM = 27.000000

Using KLU as Direct Linear Solver
 Reference value :  1.25964e-08
 Reference value :  4.80420e-08
 Reference value :  8.21870e-08
 Reference value :  1.13841e-07
 Reference value :  1.45911e-07
 Reference value :  1.78721e-07
 Reference value :  2.10152e-07
 Reference value :  2.44447e-07
 Reference value :  2.78296e-07
 Reference value :  3.12256e-07
No. of Data Rows : 68032

  Measurements for Transient Analysis

tphl                =  4.35575e-10 targ=  2.73503e-08 trig=  2.69147e-08
tplh                =  1.99827e-09 targ=  1.04743e-07 trig=  1.02744e-07
i_vdd_avg           =  -1.57795e-06 from=  1.00000e-08 to=  3.30001e-07
power_avg_uw        =  2.61926e+00


Total analysis time (seconds) = 2.59722

Total elapsed time (seconds) = 2.766 

Total DRAM available = 16384.000 MB.
DRAM currently available =  199.453 MB.
Maximum ngspice program size =   29.125 MB.
Current ngspice program size =   29.125 MB.

