
Note: Compatibility modes selected: hs a


Circuit: SKY130 library cell mux2_1 A0_to_X__A1=0,S=0

option SCALE: Scale is set to 1e-06 for instance and model parameters
Doing analysis at TEMP = 123.628330 and TNOM = 27.000000

Using KLU as Direct Linear Solver
 Reference value :  0.00000e+00
 Reference value :  2.97745e-08
 Reference value :  6.05095e-08
 Reference value :  9.16595e-08
 Reference value :  1.22312e-07
 Reference value :  1.53697e-07
 Reference value :  1.84443e-07
 Reference value :  2.15660e-07
 Reference value :  2.46310e-07
 Reference value :  2.77017e-07
 Reference value :  3.07402e-07
 Reference value :  3.38892e-07
No. of Data Rows : 68030

  Measurements for Transient Analysis

tplh                =  1.02487e-09 targ=  2.66159e-08 trig=  2.55910e-08
tphl                =  1.08035e-09 targ=  9.98534e-08 trig=  9.87730e-08
i_vdd_avg           =  -2.10271e-06 from=  1.00000e-08 to=  3.30002e-07
power_avg_uw        =  3.57031e+00


Total analysis time (seconds) = 2.84324

Total elapsed time (seconds) = 3.116 

Total DRAM available = 16384.000 MB.
DRAM currently available =   82.453 MB.
Maximum ngspice program size =   26.109 MB.
Current ngspice program size =   26.109 MB.

