
Note: Compatibility modes selected: hs a


Circuit: SKY130 library cell nor2_1 A_to_Y__B=0

option SCALE: Scale is set to 1e-06 for instance and model parameters
Doing analysis at TEMP = 94.849822 and TNOM = 27.000000

Using KLU as Direct Linear Solver
 Reference value :  7.26690e-08
 Reference value :  2.38324e-07
No. of Data Rows : 68030

  Measurements for Transient Analysis

tphl                =  8.63278e-10 targ=  2.97190e-08 trig=  2.88558e-08
tplh                =  3.04603e-09 targ=  1.11613e-07 trig=  1.08567e-07
i_vdd_avg           =  -2.13113e-06 from=  1.00000e-08 to=  3.30001e-07
power_avg_uw        =  3.93391e+00


Total analysis time (seconds) = 0.519599

Total elapsed time (seconds) = 0.648 

Total DRAM available = 16384.000 MB.
DRAM currently available =  203.203 MB.
Maximum ngspice program size =   27.156 MB.
Current ngspice program size =   27.156 MB.

