
Note: Compatibility modes selected: hs a


Circuit: SKY130 library cell nor2_4 A_to_Y__B=0

option SCALE: Scale is set to 1e-06 for instance and model parameters
Doing analysis at TEMP = 116.454030 and TNOM = 27.000000

Using KLU as Direct Linear Solver
 Reference value :  0.00000e+00
 Reference value :  2.38014e-08
 Reference value :  4.76023e-08
 Reference value :  7.18323e-08
 Reference value :  9.61223e-08
 Reference value :  1.20437e-07
 Reference value :  1.44702e-07
 Reference value :  1.68942e-07
 Reference value :  1.93023e-07
 Reference value :  2.17497e-07
 Reference value :  2.41887e-07
 Reference value :  2.66422e-07
 Reference value :  2.90547e-07
 Reference value :  3.15112e-07
 Reference value :  3.39037e-07
No. of Data Rows : 68032

  Measurements for Transient Analysis

tphl                =  -5.19142e-10 targ=  2.82758e-08 trig=  2.87949e-08
tplh                =  1.00940e-09 targ=  1.09394e-07 trig=  1.08385e-07
i_vdd_avg           =  -4.07786e-06 from=  1.00000e-08 to=  3.30002e-07
power_avg_uw        =  7.79966e+00


Total analysis time (seconds) = 3.64933

Total elapsed time (seconds) = 3.930 

Total DRAM available = 16384.000 MB.
DRAM currently available =   96.266 MB.
Maximum ngspice program size =   27.156 MB.
Current ngspice program size =   27.156 MB.

