
Note: Compatibility modes selected: hs a


Circuit: SKY130 library cell nor2_1 A_to_Y__B=0

option SCALE: Scale is set to 1e-06 for instance and model parameters
Doing analysis at TEMP = -26.253629 and TNOM = 27.000000

Using KLU as Direct Linear Solver
 Reference value :  8.34417e-08
 Reference value :  2.42762e-07
No. of Data Rows : 68032

  Measurements for Transient Analysis

tphl                =  6.65991e-10 targ=  2.63506e-08 trig=  2.56846e-08
tplh                =  2.21098e-09 targ=  1.01265e-07 trig=  9.90538e-08
i_vdd_avg           =  -1.10072e-06 from=  1.00000e-08 to=  3.30001e-07
power_avg_uw        =  1.86050e+00


Total analysis time (seconds) = 0.704381

Total elapsed time (seconds) = 0.838 

Total DRAM available = 16384.000 MB.
DRAM currently available =  197.422 MB.
Maximum ngspice program size =   26.094 MB.
Current ngspice program size =   26.094 MB.

