
Note: Compatibility modes selected: hs a


Circuit: SKY130 library cell mux2_1 A0_to_X__A1=0,S=0

option SCALE: Scale is set to 1e-06 for instance and model parameters
Doing analysis at TEMP = 68.840435 and TNOM = 27.000000

Using KLU as Direct Linear Solver
 Reference value :  2.18864e-08
 Reference value :  8.29944e-08
 Reference value :  1.45526e-07
 Reference value :  2.14359e-07
 Reference value :  2.77731e-07
 Reference value :  3.39801e-07
No. of Data Rows : 68030

  Measurements for Transient Analysis

tplh                =  2.56396e-10 targ=  2.81199e-08 trig=  2.78635e-08
tphl                =  1.25909e-09 targ=  1.06849e-07 trig=  1.05590e-07
i_vdd_avg           =  -1.02964e-06 from=  1.00000e-08 to=  3.30001e-07
power_avg_uw        =  1.79827e+00


Total analysis time (seconds) = 1.37976

Total elapsed time (seconds) = 1.529 

Total DRAM available = 16384.000 MB.
DRAM currently available =  199.453 MB.
Maximum ngspice program size =   24.328 MB.
Current ngspice program size =   24.328 MB.

