
Note: Compatibility modes selected: hs a


Circuit: SKY130 library cell nand3_1 A_to_Y__B=1,C=1

option SCALE: Scale is set to 1e-06 for instance and model parameters
Doing analysis at TEMP = -21.646107 and TNOM = 27.000000

Using KLU as Direct Linear Solver
 Reference value :  0.00000e+00
 Reference value :  5.72798e-08
 Reference value :  1.15117e-07
 Reference value :  1.72712e-07
 Reference value :  2.29535e-07
 Reference value :  2.87192e-07
No. of Data Rows : 68030

  Measurements for Transient Analysis

tphl                =  -4.64942e-10 targ=  2.85587e-08 trig=  2.90237e-08
tplh                =  1.28018e-09 targ=  1.10351e-07 trig=  1.09071e-07
i_vdd_avg           =  -5.77961e-07 from=  1.00000e-08 to=  3.30002e-07
power_avg_uw        =  1.13281e+00


Total analysis time (seconds) = 1.61907

Total elapsed time (seconds) = 1.908 

Total DRAM available = 16384.000 MB.
DRAM currently available =   80.500 MB.
Maximum ngspice program size =   26.000 MB.
Current ngspice program size =   26.000 MB.

