
Note: Compatibility modes selected: hs a


Circuit: SKY130 library cell inv_4 A_to_Y

option SCALE: Scale is set to 1e-06 for instance and model parameters
Doing analysis at TEMP = -1.729167 and TNOM = 27.000000

Using KLU as Direct Linear Solver
 Reference value :  0.00000e+00
 Reference value :  4.55504e-08
 Reference value :  9.22854e-08
 Reference value :  1.39443e-07
 Reference value :  1.85353e-07
 Reference value :  2.31465e-07
 Reference value :  2.78028e-07
 Reference value :  3.25793e-07
No. of Data Rows : 68034

  Measurements for Transient Analysis

tphl                =  1.68627e-10 targ=  2.95226e-08 trig=  2.93540e-08
tplh                =  2.32450e-09 targ=  1.12386e-07 trig=  1.10062e-07
i_vdd_avg           =  -2.04580e-06 from=  1.00000e-08 to=  3.30003e-07
power_avg_uw        =  3.39140e+00


Total analysis time (seconds) = 1.87244

Total elapsed time (seconds) = 2.132 

Total DRAM available = 16384.000 MB.
DRAM currently available =   91.453 MB.
Maximum ngspice program size =   28.016 MB.
Current ngspice program size =   28.016 MB.

