
Note: Compatibility modes selected: hs a


Circuit: SKY130 library cell aoi21_1 A1_to_Y__A2=1,B1=0

option SCALE: Scale is set to 1e-06 for instance and model parameters
Doing analysis at TEMP = 2.138716 and TNOM = 27.000000

Using KLU as Direct Linear Solver
 Reference value :  4.97450e-08
 Reference value :  1.67217e-07
 Reference value :  2.79642e-07
No. of Data Rows : 68030

  Measurements for Transient Analysis

tphl                =  1.08627e-09 targ=  2.90150e-08 trig=  2.79287e-08
tplh                =  3.29156e-09 targ=  1.09078e-07 trig=  1.05786e-07
i_vdd_avg           =  -1.31439e-06 from=  1.00000e-08 to=  3.30002e-07
power_avg_uw        =  2.24339e+00


Total analysis time (seconds) = 0.739309

Total elapsed time (seconds) = 0.880 

Total DRAM available = 16384.000 MB.
DRAM currently available =  207.219 MB.
Maximum ngspice program size =   26.328 MB.
Current ngspice program size =   26.328 MB.

