
Note: Compatibility modes selected: hs a


Circuit: SKY130 library cell aoi21_4 A1_to_Y__A2=1,B1=0

option SCALE: Scale is set to 1e-06 for instance and model parameters
Doing analysis at TEMP = 24.636135 and TNOM = 27.000000

Using KLU as Direct Linear Solver
 Reference value :  0.00000e+00
 Reference value :  1.64164e-08
 Reference value :  3.28375e-08
 Reference value :  4.92215e-08
 Reference value :  6.56365e-08
 Reference value :  8.21915e-08
 Reference value :  9.84915e-08
 Reference value :  1.15117e-07
 Reference value :  1.31371e-07
 Reference value :  1.47851e-07
 Reference value :  1.63996e-07
 Reference value :  1.80251e-07
 Reference value :  1.96867e-07
 Reference value :  2.13287e-07
 Reference value :  2.29602e-07
 Reference value :  2.45967e-07
 Reference value :  2.62092e-07
 Reference value :  2.78446e-07
 Reference value :  2.95026e-07
 Reference value :  3.11791e-07
 Reference value :  3.28416e-07
No. of Data Rows : 68032

  Measurements for Transient Analysis

tphl                =  -6.20596e-10 targ=  2.90139e-08 trig=  2.96345e-08
tplh                =  1.42766e-09 targ=  1.12331e-07 trig=  1.10904e-07
i_vdd_avg           =  -3.12183e-06 from=  1.00000e-08 to=  3.30001e-07
power_avg_uw        =  6.16973e+00


Total analysis time (seconds) = 5.31622

Total elapsed time (seconds) = 5.593 

Total DRAM available = 16384.000 MB.
DRAM currently available =   97.734 MB.
Maximum ngspice program size =   27.672 MB.
Current ngspice program size =   27.672 MB.

