
Note: Compatibility modes selected: hs a


Circuit: SKY130 library cell inv_1 A_to_Y

option SCALE: Scale is set to 1e-06 for instance and model parameters
Doing analysis at TEMP = -20.250265 and TNOM = 27.000000

Using KLU as Direct Linear Solver
 Reference value :  7.90640e-09
 Reference value :  1.53275e-07
 Reference value :  2.87615e-07
No. of Data Rows : 68030

  Measurements for Transient Analysis

tphl                =  -4.54905e-10 targ=  2.87583e-08 trig=  2.92132e-08
tplh                =  1.53987e-09 targ=  1.11180e-07 trig=  1.09640e-07
i_vdd_avg           =  -2.94218e-07 from=  1.00000e-08 to=  3.30000e-07
power_avg_uw        =  5.15463e-01


Total analysis time (seconds) = 0.614695

Total elapsed time (seconds) = 0.845 

Total DRAM available = 16384.000 MB.
DRAM currently available =  290.000 MB.
Maximum ngspice program size =   25.156 MB.
Current ngspice program size =   25.156 MB.

