
Note: Compatibility modes selected: hs a


Circuit: SKY130 library cell xor2_1 A_to_X__B=0

option SCALE: Scale is set to 1e-06 for instance and model parameters
Doing analysis at TEMP = 55.345886 and TNOM = 27.000000

Using KLU as Direct Linear Solver
 Reference value :  2.42825e-08
 Reference value :  1.03989e-07
 Reference value :  1.84188e-07
 Reference value :  2.65289e-07
No. of Data Rows : 68032

  Measurements for Transient Analysis

tplh                =  1.62005e-09 targ=  2.67329e-08 trig=  2.51129e-08
tphl                =  8.01385e-10 targ=  9.81400e-08 trig=  9.73386e-08
i_vdd_avg           =  -2.54971e-06 from=  1.00000e-08 to=  3.30004e-07
power_avg_uw        =  4.90945e+00


Total analysis time (seconds) = 1.34141

Total elapsed time (seconds) = 1.539 

Total DRAM available = 16384.000 MB.
DRAM currently available =  225.156 MB.
Maximum ngspice program size =   26.172 MB.
Current ngspice program size =   26.172 MB.

