
Note: Compatibility modes selected: hs a


Circuit: SKY130 library cell nor2_1 A_to_Y__B=0

option SCALE: Scale is set to 1e-06 for instance and model parameters
Doing analysis at TEMP = 50.128066 and TNOM = 27.000000

Using KLU as Direct Linear Solver
 Reference value :  0.00000e+00
 Reference value :  8.09123e-08
 Reference value :  1.61932e-07
 Reference value :  2.42522e-07
 Reference value :  3.32427e-07
No. of Data Rows : 68032

  Measurements for Transient Analysis

tphl                =  1.21649e-09 targ=  3.10114e-08 trig=  2.97949e-08
tplh                =  4.33647e-09 targ=  1.15721e-07 trig=  1.11385e-07
i_vdd_avg           =  -2.19425e-06 from=  1.00000e-08 to=  3.30002e-07
power_avg_uw        =  3.82763e+00


Total analysis time (seconds) = 748.311

Total elapsed time (seconds) = 748.569 

Total DRAM available = 16384.000 MB.
DRAM currently available =  186.500 MB.
Maximum ngspice program size =   26.234 MB.
Current ngspice program size =    8.625 MB.

