
Note: Compatibility modes selected: hs a


Circuit: SKY130 library cell inv_1 A_to_Y

option SCALE: Scale is set to 1e-06 for instance and model parameters
Doing analysis at TEMP = 15.266739 and TNOM = 27.000000

Using KLU as Direct Linear Solver
 Reference value :  1.26987e-07
No. of Data Rows : 68030

  Measurements for Transient Analysis

tphl                =  2.45382e-10 targ=  2.74366e-08 trig=  2.71912e-08
tplh                =  1.58378e-09 targ=  1.05157e-07 trig=  1.03574e-07
i_vdd_avg           =  -1.14643e-06 from=  1.00000e-08 to=  3.30002e-07
power_avg_uw        =  2.23264e+00


Total analysis time (seconds) = 0.316263

Total elapsed time (seconds) = 0.451 

Total DRAM available = 16384.000 MB.
DRAM currently available =  247.109 MB.
Maximum ngspice program size =   22.484 MB.
Current ngspice program size =   22.484 MB.

