
Note: Compatibility modes selected: hs a


Circuit: SKY130 library cell nor2_4 A_to_Y__B=0

option SCALE: Scale is set to 1e-06 for instance and model parameters
Doing analysis at TEMP = -3.523778 and TNOM = 27.000000

Using KLU as Direct Linear Solver
 Reference value :  0.00000e+00
 Reference value :  2.42425e-08
 Reference value :  4.85225e-08
 Reference value :  7.28075e-08
 Reference value :  9.70225e-08
 Reference value :  1.20812e-07
 Reference value :  1.44847e-07
 Reference value :  1.68652e-07
 Reference value :  1.93052e-07
 Reference value :  2.17537e-07
 Reference value :  2.41442e-07
 Reference value :  2.65422e-07
 Reference value :  2.90112e-07
 Reference value :  3.14497e-07
 Reference value :  3.38662e-07
No. of Data Rows : 68032

  Measurements for Transient Analysis

tphl                =  2.09947e-10 targ=  2.48474e-08 trig=  2.46375e-08
tplh                =  6.87377e-10 targ=  9.65998e-08 trig=  9.59125e-08
i_vdd_avg           =  -1.09847e-06 from=  1.00000e-08 to=  3.30002e-07
power_avg_uw        =  1.79443e+00


Total analysis time (seconds) = 3.6387

Total elapsed time (seconds) = 3.919 

Total DRAM available = 16384.000 MB.
DRAM currently available =  122.812 MB.
Maximum ngspice program size =   25.969 MB.
Current ngspice program size =   25.969 MB.

