
Note: Compatibility modes selected: hs a


Circuit: SKY130 library cell mux2_4 A0_to_X__A1=0,S=0

option SCALE: Scale is set to 1e-06 for instance and model parameters
Doing analysis at TEMP = 30.151612 and TNOM = 27.000000

Using KLU as Direct Linear Solver
 Reference value :  1.81714e-08
 Reference value :  6.02749e-08
 Reference value :  1.05130e-07
 Reference value :  1.50617e-07
 Reference value :  1.93630e-07
 Reference value :  2.38815e-07
 Reference value :  2.84162e-07
 Reference value :  3.21482e-07
No. of Data Rows : 68030

  Measurements for Transient Analysis

tplh                =  2.30172e-10 targ=  2.82764e-08 trig=  2.80462e-08
tphl                =  1.45758e-09 targ=  1.07596e-07 trig=  1.06139e-07
i_vdd_avg           =  -1.52019e-06 from=  1.00000e-08 to=  3.30002e-07
power_avg_uw        =  2.48079e+00


Total analysis time (seconds) = 2.17902

Total elapsed time (seconds) = 2.343 

Total DRAM available = 16384.000 MB.
DRAM currently available =  197.422 MB.
Maximum ngspice program size =   25.562 MB.
Current ngspice program size =   25.562 MB.

