
Note: Compatibility modes selected: hs a


Circuit: SKY130 library cell oai21_4 A1_to_Y__A2=0,B1=1

option SCALE: Scale is set to 1e-06 for instance and model parameters
Doing analysis at TEMP = 93.419008 and TNOM = 27.000000

Using KLU as Direct Linear Solver
 Reference value :  1.47614e-08
 Reference value :  5.05969e-08
 Reference value :  8.59519e-08
 Reference value :  1.20226e-07
 Reference value :  1.55826e-07
 Reference value :  1.89663e-07
 Reference value :  2.22952e-07
 Reference value :  2.58482e-07
 Reference value :  2.93776e-07
 Reference value :  3.27171e-07
No. of Data Rows : 68032

  Measurements for Transient Analysis

tphl                =  4.51055e-11 targ=  2.92773e-08 trig=  2.92322e-08
tplh                =  1.62338e-09 targ=  1.11320e-07 trig=  1.09697e-07
i_vdd_avg           =  -2.72115e-06 from=  1.00000e-08 to=  3.30001e-07
power_avg_uw        =  4.74746e+00


Total analysis time (seconds) = 2.48976

Total elapsed time (seconds) = 2.633 

Total DRAM available = 16384.000 MB.
DRAM currently available =  226.203 MB.
Maximum ngspice program size =   27.766 MB.
Current ngspice program size =   27.766 MB.

