
Note: Compatibility modes selected: hs a


Circuit: SKY130 library cell inv_1 A_to_Y

option SCALE: Scale is set to 1e-06 for instance and model parameters
Doing analysis at TEMP = -11.667227 and TNOM = 27.000000

Using KLU as Direct Linear Solver
 Reference value :  0.00000e+00
 Reference value :  1.33262e-07
 Reference value :  2.67882e-07
No. of Data Rows : 68032

  Measurements for Transient Analysis

tphl                =  1.03361e-09 targ=  2.72634e-08 trig=  2.62298e-08
tplh                =  2.34713e-09 targ=  1.03036e-07 trig=  1.00689e-07
i_vdd_avg           =  -1.99695e-06 from=  1.00000e-08 to=  3.30002e-07
power_avg_uw        =  3.45073e+00


Total analysis time (seconds) = 0.690311

Total elapsed time (seconds) = 0.945 

Total DRAM available = 16384.000 MB.
DRAM currently available =  122.812 MB.
Maximum ngspice program size =   25.203 MB.
Current ngspice program size =   25.203 MB.

