
Note: Compatibility modes selected: hs a


Circuit: SKY130 library cell nand3_1 A_to_Y__B=1,C=1

option SCALE: Scale is set to 1e-06 for instance and model parameters
Doing analysis at TEMP = 76.400249 and TNOM = 27.000000

Using KLU as Direct Linear Solver
 Reference value :  4.89304e-08
 Reference value :  1.65178e-07
 Reference value :  2.79663e-07
No. of Data Rows : 68034

  Measurements for Transient Analysis

tphl                =  6.97450e-10 targ=  2.81189e-08 trig=  2.74214e-08
tplh                =  1.47612e-09 targ=  1.05740e-07 trig=  1.04264e-07
i_vdd_avg           =  -6.61151e-07 from=  1.00000e-08 to=  3.30003e-07
power_avg_uw        =  1.10472e+00


Total analysis time (seconds) = 0.740484

Total elapsed time (seconds) = 0.889 

Total DRAM available = 16384.000 MB.
DRAM currently available =  199.453 MB.
Maximum ngspice program size =   27.297 MB.
Current ngspice program size =   27.297 MB.

