Note: Starting dynamic gmin stepping
Note: Dynamic gmin stepping completed

Note: Compatibility modes selected: hs a


Circuit: SKY130 library cell mux2_4 A0_to_X__A1=0,S=0

option SCALE: Scale is set to 1e-06 for instance and model parameters
Doing analysis at TEMP = -12.408864 and TNOM = 27.000000

Using KLU as Direct Linear Solver
 Reference value :  0.00000e+00
 Reference value :  2.06614e-08
 Reference value :  4.14078e-08
 Reference value :  6.27778e-08
 Reference value :  8.43028e-08
 Reference value :  1.05278e-07
 Reference value :  1.26133e-07
 Reference value :  1.47523e-07
 Reference value :  1.68913e-07
 Reference value :  1.90528e-07
 Reference value :  2.11683e-07
 Reference value :  2.32958e-07
 Reference value :  2.54348e-07
 Reference value :  2.75588e-07
 Reference value :  2.96273e-07
 Reference value :  3.35598e-07
No. of Data Rows : 68032

  Measurements for Transient Analysis

tplh                =  -1.92811e-10 targ=  2.89898e-08 trig=  2.91826e-08
tphl                =  1.60843e-09 targ=  1.11156e-07 trig=  1.09548e-07
i_vdd_avg           =  -5.13936e-07 from=  1.00000e-08 to=  3.30003e-07
power_avg_uw        =  8.71185e-01


Total analysis time (seconds) = 751.27

Total elapsed time (seconds) = 751.559 

Total DRAM available = 16384.000 MB.
DRAM currently available =  190.969 MB.
Maximum ngspice program size =   25.531 MB.
Current ngspice program size =    9.219 MB.

