
Note: Compatibility modes selected: hs a


Circuit: SKY130 library cell xor2_1 A_to_X__B=0

option SCALE: Scale is set to 1e-06 for instance and model parameters
Doing analysis at TEMP = 73.885282 and TNOM = 27.000000

Using KLU as Direct Linear Solver
 Reference value :  3.33396e-08
 Reference value :  1.07545e-07
 Reference value :  1.86548e-07
 Reference value :  2.62755e-07
 Reference value :  3.35842e-07
No. of Data Rows : 68030

  Measurements for Transient Analysis

tplh                =  5.71583e-10 targ=  2.79576e-08 trig=  2.73860e-08
tphl                =  1.04063e-09 targ=  1.05199e-07 trig=  1.04158e-07
i_vdd_avg           =  -1.36679e-06 from=  1.00000e-08 to=  3.30002e-07
power_avg_uw        =  2.42744e+00


Total analysis time (seconds) = 1.13217

Total elapsed time (seconds) = 1.272 

Total DRAM available = 16384.000 MB.
DRAM currently available =  247.109 MB.
Maximum ngspice program size =   24.344 MB.
Current ngspice program size =   24.344 MB.

