
Note: Compatibility modes selected: hs a


Circuit: SKY130 library cell oai21_1 A1_to_Y__A2=0,B1=1

option SCALE: Scale is set to 1e-06 for instance and model parameters
Doing analysis at TEMP = 119.916180 and TNOM = 27.000000

Using KLU as Direct Linear Solver
 Reference value :  3.32082e-08
 Reference value :  1.40359e-07
 Reference value :  2.43928e-07
No. of Data Rows : 68032

  Measurements for Transient Analysis

tphl                =  9.70557e-10 targ=  2.89259e-08 trig=  2.79554e-08
tplh                =  1.59126e-09 targ=  1.07457e-07 trig=  1.05866e-07
i_vdd_avg           =  -2.78004e-07 from=  1.00000e-08 to=  3.30004e-07
power_avg_uw        =  4.94791e-01


Total analysis time (seconds) = 0.832212

Total elapsed time (seconds) = 1.008 

Total DRAM available = 16384.000 MB.
DRAM currently available =  187.016 MB.
Maximum ngspice program size =   25.109 MB.
Current ngspice program size =   25.109 MB.

