
Note: Compatibility modes selected: hs a


Circuit: SKY130 library cell xor2_4 A_to_X__B=0

option SCALE: Scale is set to 1e-06 for instance and model parameters
Doing analysis at TEMP = 21.302025 and TNOM = 27.000000

Using KLU as Direct Linear Solver
 Reference value :  5.14640e-09
 Reference value :  2.26414e-08
 Reference value :  4.02611e-08
 Reference value :  5.64461e-08
 Reference value :  7.40561e-08
 Reference value :  9.05011e-08
 Reference value :  1.06100e-07
 Reference value :  1.22580e-07
 Reference value :  1.40435e-07
 Reference value :  1.57305e-07
 Reference value :  1.75755e-07
 Reference value :  1.92016e-07
 Reference value :  2.09131e-07
 Reference value :  2.27171e-07
 Reference value :  2.44216e-07
 Reference value :  2.60511e-07
 Reference value :  2.78145e-07
 Reference value :  2.96345e-07
 Reference value :  3.16030e-07
 Reference value :  3.35415e-07
No. of Data Rows : 68034

  Measurements for Transient Analysis

tplh                =  3.64000e-10 targ=  2.73258e-08 trig=  2.69618e-08
tphl                =  9.85934e-10 targ=  1.03871e-07 trig=  1.02885e-07
i_vdd_avg           =  -3.71405e-07 from=  1.00000e-08 to=  3.30005e-07
power_avg_uw        =  6.77382e-01


Total analysis time (seconds) = 4.96893

Total elapsed time (seconds) = 5.151 

Total DRAM available = 16384.000 MB.
DRAM currently available =  195.453 MB.
Maximum ngspice program size =   29.531 MB.
Current ngspice program size =   29.531 MB.

