
Note: Compatibility modes selected: hs a


Circuit: SKY130 library cell nor2_4 A_to_Y__B=0

option SCALE: Scale is set to 1e-06 for instance and model parameters
Doing analysis at TEMP = 80.555048 and TNOM = 27.000000

Using KLU as Direct Linear Solver
 Reference value :  1.13214e-08
 Reference value :  5.19998e-08
 Reference value :  9.60198e-08
 Reference value :  1.43192e-07
 Reference value :  1.88673e-07
 Reference value :  2.34795e-07
 Reference value :  2.82027e-07
 Reference value :  3.35092e-07
No. of Data Rows : 68030

  Measurements for Transient Analysis

tphl                =  8.68750e-10 targ=  2.72199e-08 trig=  2.63512e-08
tplh                =  1.67752e-09 targ=  1.02731e-07 trig=  1.01054e-07
i_vdd_avg           =  -1.81422e-06 from=  1.00000e-08 to=  3.30002e-07
power_avg_uw        =  3.33151e+00


Total analysis time (seconds) = 1.87365

Total elapsed time (seconds) = 2.037 

Total DRAM available = 16384.000 MB.
DRAM currently available =  233.312 MB.
Maximum ngspice program size =   26.188 MB.
Current ngspice program size =   26.188 MB.

