
Note: Compatibility modes selected: hs a


Circuit: SKY130 library cell mux2_1 A0_to_X__A1=0,S=0

option SCALE: Scale is set to 1e-06 for instance and model parameters
Doing analysis at TEMP = 57.957125 and TNOM = 27.000000

Using KLU as Direct Linear Solver
 Reference value :  1.85514e-08
 Reference value :  7.52935e-08
 Reference value :  1.31834e-07
 Reference value :  1.84938e-07
 Reference value :  2.36113e-07
 Reference value :  2.92079e-07
No. of Data Rows : 68032

  Measurements for Transient Analysis

tplh                =  8.12829e-10 targ=  2.70983e-08 trig=  2.62855e-08
tphl                =  1.43366e-09 targ=  1.02290e-07 trig=  1.00856e-07
i_vdd_avg           =  -4.24609e-07 from=  1.00000e-08 to=  3.30004e-07
power_avg_uw        =  7.50459e-01


Total analysis time (seconds) = 1.5871

Total elapsed time (seconds) = 1.752 

Total DRAM available = 16384.000 MB.
DRAM currently available =  161.469 MB.
Maximum ngspice program size =   26.453 MB.
Current ngspice program size =   26.453 MB.

