
Note: Compatibility modes selected: hs a


Circuit: SKY130 library cell oai21_4 A1_to_Y__A2=0,B1=1

option SCALE: Scale is set to 1e-06 for instance and model parameters
Doing analysis at TEMP = 37.458628 and TNOM = 27.000000

Using KLU as Direct Linear Solver
 Reference value :  9.17640e-09
 Reference value :  3.82667e-08
 Reference value :  6.64117e-08
 Reference value :  9.40617e-08
 Reference value :  1.24931e-07
 Reference value :  1.54751e-07
 Reference value :  1.81506e-07
 Reference value :  2.11282e-07
 Reference value :  2.40082e-07
 Reference value :  2.67182e-07
 Reference value :  2.94621e-07
 Reference value :  3.21421e-07
No. of Data Rows : 68032

  Measurements for Transient Analysis

tphl                =  2.28121e-09 targ=  3.20483e-08 trig=  2.97671e-08
tplh                =  4.17226e-09 targ=  1.15474e-07 trig=  1.11301e-07
i_vdd_avg           =  -2.01734e-06 from=  1.00000e-08 to=  3.30001e-07
power_avg_uw        =  3.35051e+00


Total analysis time (seconds) = 3.21804

Total elapsed time (seconds) = 3.413 

Total DRAM available = 16384.000 MB.
DRAM currently available =  121.391 MB.
Maximum ngspice program size =   29.078 MB.
Current ngspice program size =   29.078 MB.

