
Note: Compatibility modes selected: hs a


Circuit: SKY130 library cell inv_4 A_to_Y

option SCALE: Scale is set to 1e-06 for instance and model parameters
Doing analysis at TEMP = 50.998370 and TNOM = 27.000000

Using KLU as Direct Linear Solver
 Reference value :  2.94475e-08
 Reference value :  1.13045e-07
 Reference value :  2.01400e-07
 Reference value :  2.84028e-07
No. of Data Rows : 68034

  Measurements for Transient Analysis

tphl                =  1.27507e-09 targ=  3.12115e-08 trig=  2.99364e-08
tplh                =  2.68659e-09 targ=  1.14496e-07 trig=  1.11809e-07
i_vdd_avg           =  -1.71490e-06 from=  1.00000e-08 to=  3.30003e-07
power_avg_uw        =  3.09823e+00


Total analysis time (seconds) = 1.0342

Total elapsed time (seconds) = 1.191 

Total DRAM available = 16384.000 MB.
DRAM currently available =  105.953 MB.
Maximum ngspice program size =   25.969 MB.
Current ngspice program size =   25.969 MB.

