
Note: Compatibility modes selected: hs a


Circuit: SKY130 library cell xor2_1 A_to_X__B=0

option SCALE: Scale is set to 1e-06 for instance and model parameters
Doing analysis at TEMP = 6.690351 and TNOM = 27.000000

Using KLU as Direct Linear Solver
 Reference value :  2.30514e-08
 Reference value :  8.93893e-08
 Reference value :  1.58276e-07
 Reference value :  2.26634e-07
 Reference value :  2.88386e-07
No. of Data Rows : 68030

  Measurements for Transient Analysis

tplh                =  3.29831e-09 targ=  2.73767e-08 trig=  2.40784e-08
tphl                =  7.61281e-10 targ=  9.49965e-08 trig=  9.42352e-08
i_vdd_avg           =  -2.39058e-06 from=  1.00000e-08 to=  3.30001e-07
power_avg_uw        =  4.66496e+00


Total analysis time (seconds) = 1.34053

Total elapsed time (seconds) = 1.523 

Total DRAM available = 16384.000 MB.
DRAM currently available =  106.219 MB.
Maximum ngspice program size =   25.984 MB.
Current ngspice program size =   25.984 MB.

