
Note: Compatibility modes selected: hs a


Circuit: SKY130 library cell nor2_1 A_to_Y__B=0

option SCALE: Scale is set to 1e-06 for instance and model parameters
Doing analysis at TEMP = 113.046580 and TNOM = 27.000000

Using KLU as Direct Linear Solver
 Reference value :  4.41650e-08
 Reference value :  1.71317e-07
 Reference value :  3.06472e-07
No. of Data Rows : 68030

  Measurements for Transient Analysis

tphl                =  7.30298e-10 targ=  2.53640e-08 trig=  2.46337e-08
tplh                =  1.86288e-09 targ=  9.77641e-08 trig=  9.59012e-08
i_vdd_avg           =  -1.06467e-06 from=  1.00000e-08 to=  3.30002e-07
power_avg_uw        =  1.94366e+00


Total analysis time (seconds) = 0.672901

Total elapsed time (seconds) = 0.843 

Total DRAM available = 16384.000 MB.
DRAM currently available =  121.312 MB.
Maximum ngspice program size =   25.953 MB.
Current ngspice program size =   25.953 MB.

