
Note: Compatibility modes selected: hs a


Circuit: SKY130 library cell nand2_1 A_to_Y__B=1

option SCALE: Scale is set to 1e-06 for instance and model parameters
Doing analysis at TEMP = 14.855071 and TNOM = 27.000000

Using KLU as Direct Linear Solver
 Reference value :  4.85410e-08
 Reference value :  1.93911e-07
No. of Data Rows : 68034

  Measurements for Transient Analysis

tphl                =  9.84715e-10 targ=  2.69715e-08 trig=  2.59867e-08
tplh                =  1.52805e-09 targ=  1.01488e-07 trig=  9.99602e-08
i_vdd_avg           =  -4.51239e-07 from=  1.00000e-08 to=  3.30004e-07
power_avg_uw        =  8.23047e-01


Total analysis time (seconds) = 0.586703

Total elapsed time (seconds) = 0.752 

Total DRAM available = 16384.000 MB.
DRAM currently available =  183.953 MB.
Maximum ngspice program size =   26.469 MB.
Current ngspice program size =   26.469 MB.

