
Note: Compatibility modes selected: hs a


Circuit: SKY130 library cell mux2_1 A0_to_X__A1=0,S=0

option SCALE: Scale is set to 1e-06 for instance and model parameters
Doing analysis at TEMP = 41.516223 and TNOM = 27.000000

Using KLU as Direct Linear Solver
 Reference value :  1.89814e-08
 Reference value :  7.18441e-08
 Reference value :  1.22721e-07
 Reference value :  1.74816e-07
 Reference value :  2.29689e-07
 Reference value :  2.92661e-07
No. of Data Rows : 68030

  Measurements for Transient Analysis

tplh                =  1.18250e-09 targ=  3.07858e-08 trig=  2.96033e-08
tphl                =  2.59164e-09 targ=  1.13402e-07 trig=  1.10810e-07
i_vdd_avg           =  -4.74433e-07 from=  1.00000e-08 to=  3.30001e-07
power_avg_uw        =  8.13782e-01


Total analysis time (seconds) = 1.67218

Total elapsed time (seconds) = 1.840 

Total DRAM available = 16384.000 MB.
DRAM currently available =  121.391 MB.
Maximum ngspice program size =   25.844 MB.
Current ngspice program size =   25.844 MB.

