
Note: Compatibility modes selected: hs a


Circuit: SKY130 library cell oai21_1 A1_to_Y__A2=0,B1=1

option SCALE: Scale is set to 1e-06 for instance and model parameters
Doing analysis at TEMP = 70.913078 and TNOM = 27.000000

Using KLU as Direct Linear Solver
 Reference value :  3.03384e-08
 Reference value :  1.27829e-07
 Reference value :  2.26608e-07
 Reference value :  3.29209e-07
No. of Data Rows : 68032

  Measurements for Transient Analysis

tphl                =  2.53993e-09 targ=  2.92304e-08 trig=  2.66904e-08
tplh                =  4.81306e-09 targ=  1.06884e-07 trig=  1.02071e-07
i_vdd_avg           =  -1.79942e-06 from=  1.00000e-08 to=  3.30004e-07
power_avg_uw        =  3.10241e+00


Total analysis time (seconds) = 0.902618

Total elapsed time (seconds) = 1.054 

Total DRAM available = 16384.000 MB.
DRAM currently available =   80.141 MB.
Maximum ngspice program size =   25.688 MB.
Current ngspice program size =   25.688 MB.

