
Note: Compatibility modes selected: hs a


Circuit: SKY130 library cell inv_1 A_to_Y

option SCALE: Scale is set to 1e-06 for instance and model parameters
Doing analysis at TEMP = 105.552990 and TNOM = 27.000000

Using KLU as Direct Linear Solver
 Reference value :  8.51006e-08
 Reference value :  3.16314e-07
No. of Data Rows : 68034

  Measurements for Transient Analysis

tphl                =  2.74618e-09 targ=  3.20777e-08 trig=  2.93315e-08
tplh                =  4.15058e-09 targ=  1.14145e-07 trig=  1.09995e-07
i_vdd_avg           =  -2.09008e-06 from=  1.00000e-08 to=  3.30004e-07
power_avg_uw        =  3.90870e+00


Total analysis time (seconds) = 0.378013

Total elapsed time (seconds) = 0.534 

Total DRAM available = 16384.000 MB.
DRAM currently available =  106.219 MB.
Maximum ngspice program size =   24.516 MB.
Current ngspice program size =   24.516 MB.

