
Note: Compatibility modes selected: hs a


Circuit: SKY130 library cell mux2_4 A0_to_X__A1=0,S=0

option SCALE: Scale is set to 1e-06 for instance and model parameters
Doing analysis at TEMP = 37.677008 and TNOM = 27.000000

Using KLU as Direct Linear Solver
 Reference value :  1.24964e-08
 Reference value :  4.95463e-08
 Reference value :  8.98113e-08
 Reference value :  1.26565e-07
 Reference value :  1.64700e-07
 Reference value :  2.03176e-07
 Reference value :  2.41451e-07
 Reference value :  2.78020e-07
 Reference value :  3.16755e-07
No. of Data Rows : 68032

  Measurements for Transient Analysis

tplh                =  8.30890e-10 targ=  2.75928e-08 trig=  2.67619e-08
tphl                =  1.45552e-09 targ=  1.03741e-07 trig=  1.02286e-07
i_vdd_avg           =  -1.13737e-06 from=  1.00000e-08 to=  3.30000e-07
power_avg_uw        =  2.13097e+00


Total analysis time (seconds) = 2.25513

Total elapsed time (seconds) = 2.420 

Total DRAM available = 16384.000 MB.
DRAM currently available =  161.469 MB.
Maximum ngspice program size =   27.500 MB.
Current ngspice program size =   27.500 MB.

