
Note: Compatibility modes selected: hs a


Circuit: SKY130 library cell mux2_4 A0_to_X__A1=0,S=0

option SCALE: Scale is set to 1e-06 for instance and model parameters
Doing analysis at TEMP = 84.799440 and TNOM = 27.000000

Using KLU as Direct Linear Solver
 Reference value :  1.16264e-08
 Reference value :  4.52552e-08
 Reference value :  7.92252e-08
 Reference value :  1.15105e-07
 Reference value :  1.49273e-07
 Reference value :  1.86203e-07
 Reference value :  2.23445e-07
 Reference value :  2.62070e-07
 Reference value :  2.96873e-07
 Reference value :  3.34763e-07
No. of Data Rows : 68034

  Measurements for Transient Analysis

tplh                =  1.08472e-09 targ=  3.09886e-08 trig=  2.99039e-08
tphl                =  1.97331e-09 targ=  1.13685e-07 trig=  1.11712e-07
i_vdd_avg           =  -4.81488e-07 from=  1.00000e-08 to=  3.30003e-07
power_avg_uw        =  8.41582e-01


Total analysis time (seconds) = 2.58273

Total elapsed time (seconds) = 2.805 

Total DRAM available = 16384.000 MB.
DRAM currently available =  121.312 MB.
Maximum ngspice program size =   27.453 MB.
Current ngspice program size =   27.453 MB.

