
Note: Compatibility modes selected: hs a


Circuit: SKY130 library cell nor2_1 A_to_Y__B=0

option SCALE: Scale is set to 1e-06 for instance and model parameters
Doing analysis at TEMP = -9.060916 and TNOM = 27.000000

Using KLU as Direct Linear Solver
 Reference value :  4.70252e-08
 Reference value :  1.91755e-07
 Reference value :  3.33553e-07
No. of Data Rows : 68034

  Measurements for Transient Analysis

tphl                =  1.65120e-09 targ=  2.84826e-08 trig=  2.68314e-08
tplh                =  3.98589e-09 targ=  1.06480e-07 trig=  1.02494e-07
i_vdd_avg           =  -1.50796e-06 from=  1.00000e-08 to=  3.30003e-07
power_avg_uw        =  2.82001e+00


Total analysis time (seconds) = 0.606564

Total elapsed time (seconds) = 0.766 

Total DRAM available = 16384.000 MB.
DRAM currently available =  103.156 MB.
Maximum ngspice program size =   26.672 MB.
Current ngspice program size =   26.672 MB.

