
Note: Compatibility modes selected: hs a


Circuit: SKY130 library cell xor2_1 A_to_X__B=0

option SCALE: Scale is set to 1e-06 for instance and model parameters
Doing analysis at TEMP = 102.691050 and TNOM = 27.000000

Using KLU as Direct Linear Solver
 Reference value :  1.82614e-08
 Reference value :  7.58915e-08
 Reference value :  1.39141e-07
 Reference value :  2.00142e-07
 Reference value :  2.65592e-07
 Reference value :  3.25631e-07
No. of Data Rows : 68032

  Measurements for Transient Analysis

tplh                =  1.25931e-09 targ=  3.09788e-08 trig=  2.97195e-08
tphl                =  1.43269e-09 targ=  1.12591e-07 trig=  1.11159e-07
i_vdd_avg           =  -5.37704e-07 from=  1.00000e-08 to=  3.30001e-07
power_avg_uw        =  9.24708e-01


Total analysis time (seconds) = 1.59232

Total elapsed time (seconds) = 1.765 

Total DRAM available = 16384.000 MB.
DRAM currently available =  117.312 MB.
Maximum ngspice program size =   28.219 MB.
Current ngspice program size =   28.219 MB.

