
Note: Compatibility modes selected: hs a


Circuit: SKY130 library cell mux2_4 A0_to_X__A1=0,S=0

option SCALE: Scale is set to 1e-06 for instance and model parameters
Doing analysis at TEMP = -15.633166 and TNOM = 27.000000

Using KLU as Direct Linear Solver
 Reference value :  9.23640e-09
 Reference value :  4.54169e-08
 Reference value :  8.44419e-08
 Reference value :  1.21476e-07
 Reference value :  1.57966e-07
 Reference value :  1.94677e-07
 Reference value :  2.31197e-07
 Reference value :  2.63757e-07
 Reference value :  2.99601e-07
 Reference value :  3.36766e-07
No. of Data Rows : 68032

  Measurements for Transient Analysis

tplh                =  1.23593e-09 targ=  2.88431e-08 trig=  2.76072e-08
tphl                =  2.11473e-09 targ=  1.06936e-07 trig=  1.04822e-07
i_vdd_avg           =  -2.49808e-06 from=  1.00000e-08 to=  3.30001e-07
power_avg_uw        =  4.63749e+00


Total analysis time (seconds) = 2.41018

Total elapsed time (seconds) = 2.586 

Total DRAM available = 16384.000 MB.
DRAM currently available =  106.188 MB.
Maximum ngspice program size =   27.109 MB.
Current ngspice program size =   27.109 MB.

