
Note: Compatibility modes selected: hs a


Circuit: SKY130 library cell mux2_1 A0_to_X__A1=0,S=0

option SCALE: Scale is set to 1e-06 for instance and model parameters
Doing analysis at TEMP = 80.359407 and TNOM = 27.000000

Using KLU as Direct Linear Solver
 Reference value :  1.83714e-08
 Reference value :  6.39035e-08
 Reference value :  1.14005e-07
 Reference value :  1.64555e-07
 Reference value :  2.14669e-07
 Reference value :  2.66250e-07
 Reference value :  3.20440e-07
No. of Data Rows : 68032

  Measurements for Transient Analysis

tplh                =  1.91118e-09 targ=  2.69492e-08 trig=  2.50380e-08
tphl                =  1.60996e-09 targ=  9.87240e-08 trig=  9.71140e-08
i_vdd_avg           =  -1.48691e-06 from=  1.00000e-08 to=  3.30005e-07
power_avg_uw        =  2.46319e+00


Total analysis time (seconds) = 1.90667

Total elapsed time (seconds) = 2.063 

Total DRAM available = 16384.000 MB.
DRAM currently available =  121.312 MB.
Maximum ngspice program size =   25.562 MB.
Current ngspice program size =   25.562 MB.

