
Note: Compatibility modes selected: hs a


Circuit: SKY130 library cell nor2_4 A_to_Y__B=0

option SCALE: Scale is set to 1e-06 for instance and model parameters
Doing analysis at TEMP = 2.408578 and TNOM = 27.000000

Using KLU as Direct Linear Solver
 Reference value :  1.08264e-08
 Reference value :  5.10982e-08
 Reference value :  9.48132e-08
 Reference value :  1.37859e-07
 Reference value :  1.81409e-07
 Reference value :  2.24793e-07
 Reference value :  2.64629e-07
 Reference value :  3.09574e-07
No. of Data Rows : 68032

  Measurements for Transient Analysis

tphl                =  2.06102e-10 targ=  2.47990e-08 trig=  2.45929e-08
tplh                =  4.76406e-10 targ=  9.62550e-08 trig=  9.57786e-08
i_vdd_avg           =  -4.93225e-07 from=  1.00000e-08 to=  3.30004e-07
power_avg_uw        =  9.44972e-01


Total analysis time (seconds) = 2.04609

Total elapsed time (seconds) = 2.229 

Total DRAM available = 16384.000 MB.
DRAM currently available =  146.797 MB.
Maximum ngspice program size =   28.969 MB.
Current ngspice program size =   28.969 MB.

