
Note: Compatibility modes selected: hs a


Circuit: SKY130 library cell aoi21_1 A1_to_Y__A2=1,B1=0

option SCALE: Scale is set to 1e-06 for instance and model parameters
Doing analysis at TEMP = 111.737630 and TNOM = 27.000000

Using KLU as Direct Linear Solver
 Reference value :  3.06908e-08
 Reference value :  1.36949e-07
 Reference value :  2.35736e-07
 Reference value :  3.35529e-07
No. of Data Rows : 68034

  Measurements for Transient Analysis

tphl                =  1.96475e-09 targ=  2.85939e-08 trig=  2.66291e-08
tplh                =  2.82951e-09 targ=  1.04717e-07 trig=  1.01887e-07
i_vdd_avg           =  -9.85231e-07 from=  1.00000e-08 to=  3.30004e-07
power_avg_uw        =  1.72674e+00


Total analysis time (seconds) = 0.84685

Total elapsed time (seconds) = 1.013 

Total DRAM available = 16384.000 MB.
DRAM currently available =  126.219 MB.
Maximum ngspice program size =   27.219 MB.
Current ngspice program size =   27.219 MB.

