
Note: Compatibility modes selected: hs a


Circuit: SKY130 library cell oai21_4 A1_to_Y__A2=0,B1=1

option SCALE: Scale is set to 1e-06 for instance and model parameters
Doing analysis at TEMP = 103.671460 and TNOM = 27.000000

Using KLU as Direct Linear Solver
 Reference value :  8.02140e-09
 Reference value :  3.61954e-08
 Reference value :  6.46104e-08
 Reference value :  9.41854e-08
 Reference value :  1.23808e-07
 Reference value :  1.53858e-07
 Reference value :  1.81923e-07
 Reference value :  2.12325e-07
 Reference value :  2.40840e-07
 Reference value :  2.67723e-07
 Reference value :  2.97193e-07
 Reference value :  3.25808e-07
No. of Data Rows : 68034

  Measurements for Transient Analysis

tphl                =  6.46763e-10 targ=  2.71832e-08 trig=  2.65365e-08
tplh                =  1.07764e-09 targ=  1.02687e-07 trig=  1.01609e-07
i_vdd_avg           =  -5.55606e-07 from=  1.00000e-08 to=  3.30003e-07
power_avg_uw        =  9.56290e-01


Total analysis time (seconds) = 3.03354

Total elapsed time (seconds) = 3.210 

Total DRAM available = 16384.000 MB.
DRAM currently available =  137.422 MB.
Maximum ngspice program size =   27.188 MB.
Current ngspice program size =   27.188 MB.

