
Note: Compatibility modes selected: hs a


Circuit: SKY130 library cell oai21_1 A1_to_Y__A2=0,B1=1

option SCALE: Scale is set to 1e-06 for instance and model parameters
Doing analysis at TEMP = 11.151377 and TNOM = 27.000000

Using KLU as Direct Linear Solver
 Reference value :  3.52709e-08
 Reference value :  1.33469e-07
 Reference value :  2.34161e-07
 Reference value :  3.35474e-07
No. of Data Rows : 68034

  Measurements for Transient Analysis

tphl                =  1.00484e-09 targ=  2.59965e-08 trig=  2.49917e-08
tplh                =  2.33382e-09 targ=  9.93089e-08 trig=  9.69751e-08
i_vdd_avg           =  -1.19025e-06 from=  1.00000e-08 to=  3.30004e-07
power_avg_uw        =  2.25280e+00


Total analysis time (seconds) = 0.87448

Total elapsed time (seconds) = 1.028 

Total DRAM available = 16384.000 MB.
DRAM currently available =   95.797 MB.
Maximum ngspice program size =   26.250 MB.
Current ngspice program size =   26.250 MB.

