
Note: Compatibility modes selected: hs a


Circuit: SKY130 library cell oai21_1 A1_to_Y__A2=0,B1=1

option SCALE: Scale is set to 1e-06 for instance and model parameters
Doing analysis at TEMP = 62.077399 and TNOM = 27.000000

Using KLU as Direct Linear Solver
 Reference value :  2.92325e-08
 Reference value :  1.19175e-07
 Reference value :  2.17516e-07
 Reference value :  3.11820e-07
No. of Data Rows : 68032

  Measurements for Transient Analysis

tphl                =  2.83144e-09 targ=  3.10834e-08 trig=  2.82520e-08
tplh                =  5.20267e-09 targ=  1.11959e-07 trig=  1.06756e-07
i_vdd_avg           =  -2.51521e-06 from=  1.00000e-08 to=  3.30000e-07
power_avg_uw        =  4.87107e+00


Total analysis time (seconds) = 1.03788

Total elapsed time (seconds) = 1.210 

Total DRAM available = 16384.000 MB.
DRAM currently available =   96.312 MB.
Maximum ngspice program size =   26.625 MB.
Current ngspice program size =   26.625 MB.

