
Note: Compatibility modes selected: hs a


Circuit: SKY130 library cell xor2_4 A_to_X__B=0

option SCALE: Scale is set to 1e-06 for instance and model parameters
Doing analysis at TEMP = 123.502320 and TNOM = 27.000000

Using KLU as Direct Linear Solver
 Reference value :  3.21640e-09
 Reference value :  2.00914e-08
 Reference value :  3.71169e-08
 Reference value :  5.46219e-08
 Reference value :  7.12219e-08
 Reference value :  8.78219e-08
 Reference value :  1.04181e-07
 Reference value :  1.22396e-07
 Reference value :  1.40101e-07
 Reference value :  1.57606e-07
 Reference value :  1.75721e-07
 Reference value :  1.92177e-07
 Reference value :  2.11207e-07
 Reference value :  2.28927e-07
 Reference value :  2.47142e-07
 Reference value :  2.62221e-07
 Reference value :  2.80031e-07
 Reference value :  2.96801e-07
 Reference value :  3.13136e-07
 Reference value :  3.29696e-07
No. of Data Rows : 68032

  Measurements for Transient Analysis

tplh                =  8.71851e-10 targ=  2.65115e-08 trig=  2.56397e-08
tphl                =  6.91206e-10 targ=  9.96103e-08 trig=  9.89191e-08
i_vdd_avg           =  -1.78221e-06 from=  1.00000e-08 to=  3.30001e-07
power_avg_uw        =  3.18100e+00


Total analysis time (seconds) = 5.04101

Total elapsed time (seconds) = 5.241 

Total DRAM available = 16384.000 MB.
DRAM currently available =   99.078 MB.
Maximum ngspice program size =   29.031 MB.
Current ngspice program size =   29.031 MB.

