
Note: Compatibility modes selected: hs a


Circuit: SKY130 library cell nor2_4 A_to_Y__B=0

option SCALE: Scale is set to 1e-06 for instance and model parameters
Doing analysis at TEMP = 105.586100 and TNOM = 27.000000

Using KLU as Direct Linear Solver
 Reference value :  1.42714e-08
 Reference value :  5.87532e-08
 Reference value :  1.04074e-07
 Reference value :  1.46549e-07
 Reference value :  1.91238e-07
 Reference value :  2.30178e-07
 Reference value :  2.74189e-07
 Reference value :  3.18059e-07
No. of Data Rows : 68032

  Measurements for Transient Analysis

tphl                =  7.68667e-10 targ=  2.66240e-08 trig=  2.58554e-08
tplh                =  1.43834e-09 targ=  1.01004e-07 trig=  9.95661e-08
i_vdd_avg           =  -2.50031e-06 from=  1.00000e-08 to=  3.30004e-07
power_avg_uw        =  4.92480e+00


Total analysis time (seconds) = 2.13972

Total elapsed time (seconds) = 2.383 

Total DRAM available = 16384.000 MB.
DRAM currently available =  106.219 MB.
Maximum ngspice program size =   28.141 MB.
Current ngspice program size =   28.141 MB.

