
Note: Compatibility modes selected: hs a


Circuit: SKY130 library cell nand2_4 A_to_Y__B=1

option SCALE: Scale is set to 1e-06 for instance and model parameters
Doing analysis at TEMP = 47.386668 and TNOM = 27.000000

Using KLU as Direct Linear Solver
 Reference value :  1.61014e-08
 Reference value :  5.64606e-08
 Reference value :  9.91656e-08
 Reference value :  1.41269e-07
 Reference value :  1.83329e-07
 Reference value :  2.27256e-07
 Reference value :  2.69099e-07
 Reference value :  3.14174e-07
No. of Data Rows : 68034

  Measurements for Transient Analysis

tphl                =  2.54778e-10 targ=  2.61888e-08 trig=  2.59341e-08
tplh                =  6.01889e-10 targ=  1.00404e-07 trig=  9.98022e-08
i_vdd_avg           =  -1.99128e-07 from=  1.00000e-08 to=  3.30004e-07
power_avg_uw        =  3.52820e-01


Total analysis time (seconds) = 2.05315

Total elapsed time (seconds) = 2.215 

Total DRAM available = 16384.000 MB.
DRAM currently available =  106.188 MB.
Maximum ngspice program size =   26.500 MB.
Current ngspice program size =   26.500 MB.

