
Note: Compatibility modes selected: hs a


Circuit: SKY130 library cell inv_4 A_to_Y

option SCALE: Scale is set to 1e-06 for instance and model parameters
Doing analysis at TEMP = 121.692020 and TNOM = 27.000000

Using KLU as Direct Linear Solver
 Reference value :  2.99227e-08
 Reference value :  1.16908e-07
 Reference value :  2.12558e-07
 Reference value :  2.92383e-07
No. of Data Rows : 68032

  Measurements for Transient Analysis

tphl                =  7.60540e-10 targ=  2.67631e-08 trig=  2.60026e-08
tplh                =  1.18381e-09 targ=  1.01192e-07 trig=  1.00008e-07
i_vdd_avg           =  -2.32146e-06 from=  1.00000e-08 to=  3.30003e-07
power_avg_uw        =  4.53681e+00


Total analysis time (seconds) = 1.1067

Total elapsed time (seconds) = 1.260 

Total DRAM available = 16384.000 MB.
DRAM currently available =   98.422 MB.
Maximum ngspice program size =   26.828 MB.
Current ngspice program size =   26.828 MB.

