
Note: Compatibility modes selected: hs a


Circuit: SKY130 library cell inv_4 A_to_Y

option SCALE: Scale is set to 1e-06 for instance and model parameters
Doing analysis at TEMP = -12.381489 and TNOM = 27.000000

Using KLU as Direct Linear Solver
 Reference value :  2.61775e-08
 Reference value :  1.01488e-07
 Reference value :  1.81623e-07
 Reference value :  2.63763e-07
 Reference value :  3.38813e-07
No. of Data Rows : 68032

  Measurements for Transient Analysis

tphl                =  1.48794e-10 targ=  2.86514e-08 trig=  2.85026e-08
tplh                =  1.29145e-09 targ=  1.08799e-07 trig=  1.07508e-07
i_vdd_avg           =  -2.69580e-07 from=  1.00000e-08 to=  3.30003e-07
power_avg_uw        =  5.03973e-01


Total analysis time (seconds) = 1.23354

Total elapsed time (seconds) = 1.397 

Total DRAM available = 16384.000 MB.
DRAM currently available =  124.078 MB.
Maximum ngspice program size =   26.422 MB.
Current ngspice program size =   26.422 MB.

