
Note: Compatibility modes selected: hs a


Circuit: SKY130 library cell xor2_1 A_to_X__B=0

option SCALE: Scale is set to 1e-06 for instance and model parameters
Doing analysis at TEMP = -37.189216 and TNOM = 27.000000

Using KLU as Direct Linear Solver
 Reference value :  1.99714e-08
 Reference value :  8.59383e-08
 Reference value :  1.50789e-07
 Reference value :  2.16618e-07
 Reference value :  2.81714e-07
No. of Data Rows : 68032

  Measurements for Transient Analysis

tplh                =  2.79620e-09 targ=  2.92716e-08 trig=  2.64754e-08
tphl                =  1.51268e-09 targ=  1.02939e-07 trig=  1.01426e-07
i_vdd_avg           =  -1.48366e-06 from=  1.00000e-08 to=  3.30004e-07
power_avg_uw        =  2.76649e+00


Total analysis time (seconds) = 1.31398

Total elapsed time (seconds) = 1.486 

Total DRAM available = 16384.000 MB.
DRAM currently available =  119.172 MB.
Maximum ngspice program size =   24.375 MB.
Current ngspice program size =   24.375 MB.

