
Note: Compatibility modes selected: hs a


Circuit: SKY130 library cell aoi21_1 A1_to_Y__A2=1,B1=0

option SCALE: Scale is set to 1e-06 for instance and model parameters
Doing analysis at TEMP = 88.511789 and TNOM = 27.000000

Using KLU as Direct Linear Solver
 Reference value :  3.38485e-08
 Reference value :  1.25960e-07
 Reference value :  2.24199e-07
 Reference value :  3.17470e-07
No. of Data Rows : 68032

  Measurements for Transient Analysis

tphl                =  2.54294e-09 targ=  3.00035e-08 trig=  2.74605e-08
tplh                =  3.87110e-09 targ=  1.08253e-07 trig=  1.04382e-07
i_vdd_avg           =  -1.18772e-06 from=  1.00000e-08 to=  3.30005e-07
power_avg_uw        =  2.04351e+00


Total analysis time (seconds) = 0.920459

Total elapsed time (seconds) = 1.098 

Total DRAM available = 16384.000 MB.
DRAM currently available =   99.078 MB.
Maximum ngspice program size =   25.141 MB.
Current ngspice program size =   25.141 MB.

