
Note: Compatibility modes selected: hs a


Circuit: SKY130 library cell nand2_4 A_to_Y__B=1

option SCALE: Scale is set to 1e-06 for instance and model parameters
Doing analysis at TEMP = 83.886028 and TNOM = 27.000000

Using KLU as Direct Linear Solver
 Reference value :  1.39764e-08
 Reference value :  5.89047e-08
 Reference value :  9.94347e-08
 Reference value :  1.42117e-07
 Reference value :  1.81517e-07
 Reference value :  2.22185e-07
 Reference value :  2.60925e-07
 Reference value :  2.98412e-07
 Reference value :  3.39072e-07
No. of Data Rows : 68030

  Measurements for Transient Analysis

tphl                =  7.84321e-10 targ=  2.85354e-08 trig=  2.77511e-08
tplh                =  1.33042e-09 targ=  1.06584e-07 trig=  1.05253e-07
i_vdd_avg           =  -1.41514e-06 from=  1.00000e-08 to=  3.30002e-07
power_avg_uw        =  2.76085e+00


Total analysis time (seconds) = 2.30437

Total elapsed time (seconds) = 2.483 

Total DRAM available = 16384.000 MB.
DRAM currently available =  102.766 MB.
Maximum ngspice program size =   26.891 MB.
Current ngspice program size =   26.891 MB.

