
Note: Compatibility modes selected: hs a


Circuit: SKY130 library cell xor2_1 A_to_X__B=0

option SCALE: Scale is set to 1e-06 for instance and model parameters
Doing analysis at TEMP = 37.356648 and TNOM = 27.000000

Using KLU as Direct Linear Solver
 Reference value :  2.31714e-08
 Reference value :  9.70145e-08
 Reference value :  1.73672e-07
 Reference value :  2.49425e-07
 Reference value :  3.24637e-07
No. of Data Rows : 68030

  Measurements for Transient Analysis

tplh                =  7.81579e-10 targ=  2.87901e-08 trig=  2.80085e-08
tphl                =  1.28746e-09 targ=  1.07313e-07 trig=  1.06026e-07
i_vdd_avg           =  -3.39401e-07 from=  1.00000e-08 to=  3.30002e-07
power_avg_uw        =  6.14029e-01


Total analysis time (seconds) = 1.15067

Total elapsed time (seconds) = 1.312 

Total DRAM available = 16384.000 MB.
DRAM currently available =  233.312 MB.
Maximum ngspice program size =   27.484 MB.
Current ngspice program size =   27.484 MB.

