
Note: Compatibility modes selected: hs a


Circuit: SKY130 library cell inv_1 A_to_Y

option SCALE: Scale is set to 1e-06 for instance and model parameters
Doing analysis at TEMP = 7.552689 and TNOM = 27.000000

Using KLU as Direct Linear Solver
 Reference value :  7.58805e-08
 Reference value :  2.94834e-07
No. of Data Rows : 68034

  Measurements for Transient Analysis

tphl                =  1.51048e-09 targ=  2.78920e-08 trig=  2.63815e-08
tplh                =  2.59836e-09 targ=  1.03743e-07 trig=  1.01145e-07
i_vdd_avg           =  -1.40200e-06 from=  1.00000e-08 to=  3.30004e-07
power_avg_uw        =  2.58779e+00


Total analysis time (seconds) = 0.394132

Total elapsed time (seconds) = 0.552 

Total DRAM available = 16384.000 MB.
DRAM currently available =  163.406 MB.
Maximum ngspice program size =   25.484 MB.
Current ngspice program size =   25.484 MB.

