
Note: Compatibility modes selected: hs a


Circuit: SKY130 library cell oai21_4 A1_to_Y__A2=0,B1=1

option SCALE: Scale is set to 1e-06 for instance and model parameters
Doing analysis at TEMP = -15.568311 and TNOM = 27.000000

Using KLU as Direct Linear Solver
 Reference value :  8.82640e-09
 Reference value :  3.71632e-08
 Reference value :  6.70782e-08
 Reference value :  9.71782e-08
 Reference value :  1.25924e-07
 Reference value :  1.53814e-07
 Reference value :  1.81694e-07
 Reference value :  2.09063e-07
 Reference value :  2.36548e-07
 Reference value :  2.65969e-07
 Reference value :  2.96139e-07
 Reference value :  3.24139e-07
No. of Data Rows : 68032

  Measurements for Transient Analysis

tphl                =  6.97148e-10 targ=  2.64500e-08 trig=  2.57529e-08
tplh                =  1.46433e-09 targ=  1.00723e-07 trig=  9.92586e-08
i_vdd_avg           =  -9.51390e-07 from=  1.00000e-08 to=  3.30004e-07
power_avg_uw        =  1.69436e+00


Total analysis time (seconds) = 3.0064

Total elapsed time (seconds) = 3.173 

Total DRAM available = 16384.000 MB.
DRAM currently available =   75.828 MB.
Maximum ngspice program size =   26.172 MB.
Current ngspice program size =   26.172 MB.

