
Note: Compatibility modes selected: hs a


Circuit: SKY130 library cell nand3_1 A_to_Y__B=1,C=1

option SCALE: Scale is set to 1e-06 for instance and model parameters
Doing analysis at TEMP = 101.081560 and TNOM = 27.000000

Using KLU as Direct Linear Solver
 Reference value :  3.39343e-08
 Reference value :  1.39966e-07
 Reference value :  2.29604e-07
 Reference value :  3.20976e-07
No. of Data Rows : 68030

  Measurements for Transient Analysis

tphl                =  1.00449e-09 targ=  2.51454e-08 trig=  2.41409e-08
tplh                =  7.60780e-10 targ=  9.51835e-08 trig=  9.44227e-08
i_vdd_avg           =  -1.00202e-06 from=  1.00000e-08 to=  3.30001e-07
power_avg_uw        =  1.86874e+00


Total analysis time (seconds) = 0.976483

Total elapsed time (seconds) = 1.141 

Total DRAM available = 16384.000 MB.
DRAM currently available =  121.312 MB.
Maximum ngspice program size =   27.203 MB.
Current ngspice program size =   27.203 MB.

