
Note: Compatibility modes selected: hs a


Circuit: SKY130 library cell aoi21_4 A1_to_Y__A2=1,B1=0

option SCALE: Scale is set to 1e-06 for instance and model parameters
Doing analysis at TEMP = -6.043907 and TNOM = 27.000000

Using KLU as Direct Linear Solver
 Reference value :  7.51640e-09
 Reference value :  3.51780e-08
 Reference value :  6.61530e-08
 Reference value :  9.41330e-08
 Reference value :  1.22544e-07
 Reference value :  1.51904e-07
 Reference value :  1.81249e-07
 Reference value :  2.08223e-07
 Reference value :  2.35948e-07
 Reference value :  2.64834e-07
 Reference value :  2.94554e-07
 Reference value :  3.22849e-07
No. of Data Rows : 68032

  Measurements for Transient Analysis

tphl                =  1.15706e-09 targ=  2.77948e-08 trig=  2.66378e-08
tplh                =  2.26489e-09 targ=  1.04178e-07 trig=  1.01913e-07
i_vdd_avg           =  -2.08222e-06 from=  1.00000e-08 to=  3.30004e-07
power_avg_uw        =  3.85794e+00


Total analysis time (seconds) = 3.01812

Total elapsed time (seconds) = 3.202 

Total DRAM available = 16384.000 MB.
DRAM currently available =  161.469 MB.
Maximum ngspice program size =   28.922 MB.
Current ngspice program size =   28.922 MB.

