
Note: Compatibility modes selected: hs a


Circuit: SKY130 library cell nand2_4 A_to_Y__B=1

option SCALE: Scale is set to 1e-06 for instance and model parameters
Doing analysis at TEMP = 9.995562 and TNOM = 27.000000

Using KLU as Direct Linear Solver
 Reference value :  1.69364e-08
 Reference value :  5.81456e-08
 Reference value :  9.77437e-08
 Reference value :  1.39139e-07
 Reference value :  1.77699e-07
 Reference value :  2.18891e-07
 Reference value :  2.59619e-07
 Reference value :  2.98724e-07
No. of Data Rows : 68034

  Measurements for Transient Analysis

tphl                =  3.16448e-10 targ=  2.44805e-08 trig=  2.41640e-08
tplh                =  4.68540e-10 targ=  9.49607e-08 trig=  9.44922e-08
i_vdd_avg           =  -1.31314e-06 from=  1.00000e-08 to=  3.30004e-07
power_avg_uw        =  2.22123e+00


Total analysis time (seconds) = 2.28455

Total elapsed time (seconds) = 2.442 

Total DRAM available = 16384.000 MB.
DRAM currently available =  121.312 MB.
Maximum ngspice program size =   28.125 MB.
Current ngspice program size =   28.125 MB.

