
Note: Compatibility modes selected: hs a


Circuit: SKY130 library cell nor2_4 A_to_Y__B=0

option SCALE: Scale is set to 1e-06 for instance and model parameters
Doing analysis at TEMP = -39.408730 and TNOM = 27.000000

Using KLU as Direct Linear Solver
 Reference value :  1.39514e-08
 Reference value :  5.34332e-08
 Reference value :  9.54432e-08
 Reference value :  1.37009e-07
 Reference value :  1.79604e-07
 Reference value :  2.19273e-07
 Reference value :  2.62403e-07
 Reference value :  3.03254e-07
No. of Data Rows : 68032

  Measurements for Transient Analysis

tphl                =  1.08359e-09 targ=  2.96665e-08 trig=  2.85829e-08
tplh                =  2.98565e-09 targ=  1.10734e-07 trig=  1.07749e-07
i_vdd_avg           =  -1.02524e-06 from=  1.00000e-08 to=  3.30004e-07
power_avg_uw        =  1.82074e+00


Total analysis time (seconds) = 2.09904

Total elapsed time (seconds) = 2.259 

Total DRAM available = 16384.000 MB.
DRAM currently available =  119.172 MB.
Maximum ngspice program size =   25.672 MB.
Current ngspice program size =   25.672 MB.

