
Note: Compatibility modes selected: hs a


Circuit: SKY130 library cell inv_1 A_to_Y

option SCALE: Scale is set to 1e-06 for instance and model parameters
Doing analysis at TEMP = 96.370910 and TNOM = 27.000000

Using KLU as Direct Linear Solver
 Reference value :  1.25599e-07
No. of Data Rows : 68034

  Measurements for Transient Analysis

tphl                =  8.21350e-10 targ=  2.55080e-08 trig=  2.46866e-08
tplh                =  1.32622e-09 targ=  9.73861e-08 trig=  9.60599e-08
i_vdd_avg           =  -8.82197e-07 from=  1.00000e-08 to=  3.30004e-07
power_avg_uw        =  1.44316e+00


Total analysis time (seconds) = 0.345039

Total elapsed time (seconds) = 0.478 

Total DRAM available = 16384.000 MB.
DRAM currently available =  131.641 MB.
Maximum ngspice program size =   24.594 MB.
Current ngspice program size =   24.594 MB.

