
Note: Compatibility modes selected: hs a


Circuit: SKY130 library cell mux2_4 A0_to_X__A1=0,S=0

option SCALE: Scale is set to 1e-06 for instance and model parameters
Doing analysis at TEMP = 123.150400 and TNOM = 27.000000

Using KLU as Direct Linear Solver
 Reference value :  1.16414e-08
 Reference value :  5.12329e-08
 Reference value :  8.69579e-08
 Reference value :  1.20728e-07
 Reference value :  1.56173e-07
 Reference value :  1.95108e-07
 Reference value :  2.31673e-07
 Reference value :  2.68833e-07
 Reference value :  3.05228e-07
No. of Data Rows : 68032

  Measurements for Transient Analysis

tplh                =  3.31623e-10 targ=  2.44693e-08 trig=  2.41377e-08
tphl                =  4.02765e-10 targ=  9.48158e-08 trig=  9.44131e-08
i_vdd_avg           =  -9.15328e-07 from=  1.00000e-08 to=  3.30003e-07
power_avg_uw        =  1.76211e+00


Total analysis time (seconds) = 2.62535

Total elapsed time (seconds) = 2.802 

Total DRAM available = 16384.000 MB.
DRAM currently available =  114.109 MB.
Maximum ngspice program size =   26.375 MB.
Current ngspice program size =   26.375 MB.

