
Note: Compatibility modes selected: hs a


Circuit: SKY130 library cell mux2_1 A0_to_X__A1=0,S=0

option SCALE: Scale is set to 1e-06 for instance and model parameters
Doing analysis at TEMP = 3.872947 and TNOM = 27.000000

Using KLU as Direct Linear Solver
 Reference value :  1.95414e-08
 Reference value :  7.02430e-08
 Reference value :  1.24803e-07
 Reference value :  1.78268e-07
 Reference value :  2.31418e-07
 Reference value :  2.85203e-07
 Reference value :  3.39603e-07
No. of Data Rows : 68032

  Measurements for Transient Analysis

tplh                =  1.31261e-09 targ=  2.86103e-08 trig=  2.72977e-08
tphl                =  1.97470e-09 targ=  1.05868e-07 trig=  1.03893e-07
i_vdd_avg           =  -1.02896e-06 from=  1.00000e-08 to=  3.30003e-07
power_avg_uw        =  1.88398e+00


Total analysis time (seconds) = 1.61336

Total elapsed time (seconds) = 1.776 

Total DRAM available = 16384.000 MB.
DRAM currently available =  103.156 MB.
Maximum ngspice program size =   26.719 MB.
Current ngspice program size =   26.719 MB.

