
Note: Compatibility modes selected: hs a


Circuit: SKY130 library cell nor2_4 A_to_Y__B=0

option SCALE: Scale is set to 1e-06 for instance and model parameters
Doing analysis at TEMP = 28.832017 and TNOM = 27.000000

Using KLU as Direct Linear Solver
 Reference value :  1.16564e-08
 Reference value :  4.97628e-08
 Reference value :  9.09578e-08
 Reference value :  1.29993e-07
 Reference value :  1.68293e-07
 Reference value :  2.12118e-07
 Reference value :  2.51478e-07
 Reference value :  2.89203e-07
 Reference value :  3.28533e-07
No. of Data Rows : 68032

  Measurements for Transient Analysis

tphl                =  1.90586e-09 targ=  3.18585e-08 trig=  2.99527e-08
tplh                =  4.00683e-09 targ=  1.15865e-07 trig=  1.11858e-07
i_vdd_avg           =  -1.43306e-06 from=  1.00000e-08 to=  3.30003e-07
power_avg_uw        =  2.33875e+00


Total analysis time (seconds) = 2.39159

Total elapsed time (seconds) = 2.568 

Total DRAM available = 16384.000 MB.
DRAM currently available =  117.312 MB.
Maximum ngspice program size =   27.766 MB.
Current ngspice program size =   27.766 MB.

