
Note: Compatibility modes selected: hs a


Circuit: SKY130 library cell xor2_1 A_to_X__B=0

option SCALE: Scale is set to 1e-06 for instance and model parameters
Doing analysis at TEMP = 75.259765 and TNOM = 27.000000

Using KLU as Direct Linear Solver
 Reference value :  1.59164e-08
 Reference value :  8.13604e-08
 Reference value :  1.39003e-07
 Reference value :  2.00440e-07
 Reference value :  2.61975e-07
 Reference value :  3.22468e-07
No. of Data Rows : 68034

  Measurements for Transient Analysis

tplh                =  4.19794e-09 targ=  3.20069e-08 trig=  2.78089e-08
tphl                =  2.02592e-09 targ=  1.07453e-07 trig=  1.05427e-07
i_vdd_avg           =  -1.68607e-06 from=  1.00000e-08 to=  3.30003e-07
power_avg_uw        =  2.78621e+00


Total analysis time (seconds) = 1.442

Total elapsed time (seconds) = 1.625 

Total DRAM available = 16384.000 MB.
DRAM currently available =   99.078 MB.
Maximum ngspice program size =   26.906 MB.
Current ngspice program size =   26.906 MB.

