
Note: Compatibility modes selected: hs a


Circuit: SKY130 library cell xor2_4 A_to_X__B=0

option SCALE: Scale is set to 1e-06 for instance and model parameters
Doing analysis at TEMP = 94.524456 and TNOM = 27.000000

Using KLU as Direct Linear Solver
 Reference value :  4.38640e-09
 Reference value :  2.21764e-08
 Reference value :  3.90036e-08
 Reference value :  5.59586e-08
 Reference value :  7.26436e-08
 Reference value :  8.86936e-08
 Reference value :  1.05939e-07
 Reference value :  1.22130e-07
 Reference value :  1.39995e-07
 Reference value :  1.56580e-07
 Reference value :  1.72925e-07
 Reference value :  1.90613e-07
 Reference value :  2.08624e-07
 Reference value :  2.25514e-07
 Reference value :  2.42004e-07
 Reference value :  2.58754e-07
 Reference value :  2.74759e-07
 Reference value :  2.91770e-07
 Reference value :  3.08405e-07
 Reference value :  3.24765e-07
No. of Data Rows : 68032

  Measurements for Transient Analysis

tplh                =  1.16969e-09 targ=  3.11477e-08 trig=  2.99780e-08
tphl                =  1.57248e-09 targ=  1.13507e-07 trig=  1.11934e-07
i_vdd_avg           =  -1.37598e-06 from=  1.00000e-08 to=  3.30005e-07
power_avg_uw        =  2.27704e+00


Total analysis time (seconds) = 5.16908

Total elapsed time (seconds) = 5.351 

Total DRAM available = 16384.000 MB.
DRAM currently available =  119.172 MB.
Maximum ngspice program size =   28.781 MB.
Current ngspice program size =   28.781 MB.

