
Note: Compatibility modes selected: hs a


Circuit: SKY130 library cell oai21_1 A1_to_Y__A2=0,B1=1

option SCALE: Scale is set to 1e-06 for instance and model parameters
Doing analysis at TEMP = 15.404203 and TNOM = 27.000000

Using KLU as Direct Linear Solver
 Reference value :  3.38725e-08
 Reference value :  1.31139e-07
 Reference value :  2.30576e-07
No. of Data Rows : 68034

  Measurements for Transient Analysis

tphl                =  2.65028e-09 targ=  3.21593e-08 trig=  2.95090e-08
tplh                =  5.23514e-09 targ=  1.15762e-07 trig=  1.10527e-07
i_vdd_avg           =  -1.49378e-06 from=  1.00000e-08 to=  3.30004e-07
power_avg_uw        =  2.77123e+00


Total analysis time (seconds) = 0.844867

Total elapsed time (seconds) = 0.999 

Total DRAM available = 16384.000 MB.
DRAM currently available =  138.125 MB.
Maximum ngspice program size =   24.797 MB.
Current ngspice program size =   24.797 MB.

