
Note: Compatibility modes selected: hs a


Circuit: SKY130 library cell mux2_4 A0_to_X__A1=0,S=0

option SCALE: Scale is set to 1e-06 for instance and model parameters
Doing analysis at TEMP = 55.144550 and TNOM = 27.000000

Using KLU as Direct Linear Solver
 Reference value :  1.14164e-08
 Reference value :  4.68083e-08
 Reference value :  8.52583e-08
 Reference value :  1.23399e-07
 Reference value :  1.61069e-07
 Reference value :  2.00663e-07
 Reference value :  2.38363e-07
 Reference value :  2.77474e-07
 Reference value :  3.14399e-07
No. of Data Rows : 68032

  Measurements for Transient Analysis

tplh                =  9.69411e-10 targ=  2.60673e-08 trig=  2.50979e-08
tphl                =  1.14498e-09 targ=  9.84386e-08 trig=  9.72936e-08
i_vdd_avg           =  -1.92690e-06 from=  1.00000e-08 to=  3.30004e-07
power_avg_uw        =  3.35140e+00


Total analysis time (seconds) = 2.29053

Total elapsed time (seconds) = 2.461 

Total DRAM available = 16384.000 MB.
DRAM currently available =  103.156 MB.
Maximum ngspice program size =   27.453 MB.
Current ngspice program size =   27.453 MB.

