
Note: Compatibility modes selected: hs a


Circuit: SKY130 library cell aoi21_4 A1_to_Y__A2=1,B1=0

option SCALE: Scale is set to 1e-06 for instance and model parameters
Doing analysis at TEMP = -19.108437 and TNOM = 27.000000

Using KLU as Direct Linear Solver
 Reference value :  1.01364e-08
 Reference value :  4.00041e-08
 Reference value :  6.93041e-08
 Reference value :  9.87841e-08
 Reference value :  1.25916e-07
 Reference value :  1.53941e-07
 Reference value :  1.83546e-07
 Reference value :  2.10759e-07
 Reference value :  2.39349e-07
 Reference value :  2.69054e-07
 Reference value :  2.97871e-07
 Reference value :  3.26781e-07
No. of Data Rows : 68030

  Measurements for Transient Analysis

tphl                =  1.10432e-09 targ=  3.01001e-08 trig=  2.89958e-08
tplh                =  2.76256e-09 targ=  1.11750e-07 trig=  1.08987e-07
i_vdd_avg           =  -3.64935e-07 from=  1.00000e-08 to=  3.30001e-07
power_avg_uw        =  5.98600e-01


Total analysis time (seconds) = 3.29934

Total elapsed time (seconds) = 3.463 

Total DRAM available = 16384.000 MB.
DRAM currently available =   91.844 MB.
Maximum ngspice program size =   27.047 MB.
Current ngspice program size =   27.047 MB.

