
Note: Compatibility modes selected: hs a


Circuit: SKY130 library cell aoi21_4 A1_to_Y__A2=1,B1=0

option SCALE: Scale is set to 1e-06 for instance and model parameters
Doing analysis at TEMP = 94.463123 and TNOM = 27.000000

Using KLU as Direct Linear Solver
 Reference value :  8.83640e-09
 Reference value :  3.92313e-08
 Reference value :  6.77563e-08
 Reference value :  9.91563e-08
 Reference value :  1.27510e-07
 Reference value :  1.55085e-07
 Reference value :  1.83765e-07
 Reference value :  2.13271e-07
 Reference value :  2.44461e-07
 Reference value :  2.72311e-07
 Reference value :  3.01385e-07
 Reference value :  3.31425e-07
No. of Data Rows : 68032

  Measurements for Transient Analysis

tphl                =  1.98610e-09 targ=  3.14505e-08 trig=  2.94644e-08
tplh                =  3.07360e-09 targ=  1.13467e-07 trig=  1.10393e-07
i_vdd_avg           =  -2.29586e-06 from=  1.00000e-08 to=  3.30000e-07
power_avg_uw        =  4.03944e+00


Total analysis time (seconds) = 3.10202

Total elapsed time (seconds) = 3.271 

Total DRAM available = 16384.000 MB.
DRAM currently available =  102.766 MB.
Maximum ngspice program size =   29.406 MB.
Current ngspice program size =   29.406 MB.

