
Note: Compatibility modes selected: hs a


Circuit: SKY130 library cell aoi21_4 A1_to_Y__A2=1,B1=0

option SCALE: Scale is set to 1e-06 for instance and model parameters
Doing analysis at TEMP = 28.908712 and TNOM = 27.000000

Using KLU as Direct Linear Solver
 Reference value :  7.00640e-09
 Reference value :  3.55510e-08
 Reference value :  6.06660e-08
 Reference value :  8.68660e-08
 Reference value :  1.15034e-07
 Reference value :  1.41984e-07
 Reference value :  1.69779e-07
 Reference value :  1.96541e-07
 Reference value :  2.24671e-07
 Reference value :  2.52691e-07
 Reference value :  2.80154e-07
 Reference value :  3.06424e-07
 Reference value :  3.36864e-07
No. of Data Rows : 68034

  Measurements for Transient Analysis

tphl                =  5.52130e-10 targ=  2.62839e-08 trig=  2.57317e-08
tplh                =  1.06279e-09 targ=  1.00258e-07 trig=  9.91952e-08
i_vdd_avg           =  -9.70040e-07 from=  1.00000e-08 to=  3.30004e-07
power_avg_uw        =  1.87146e+00


Total analysis time (seconds) = 3.46692

Total elapsed time (seconds) = 3.643 

Total DRAM available = 16384.000 MB.
DRAM currently available =  121.312 MB.
Maximum ngspice program size =   29.594 MB.
Current ngspice program size =   29.594 MB.

