
Note: Compatibility modes selected: hs a


Circuit: SKY130 library cell inv_1 A_to_Y

option SCALE: Scale is set to 1e-06 for instance and model parameters
Doing analysis at TEMP = 24.383497 and TNOM = 27.000000

Using KLU as Direct Linear Solver
 Reference value :  7.53001e-08
 Reference value :  3.09588e-07
No. of Data Rows : 68034

  Measurements for Transient Analysis

tphl                =  2.69168e-09 targ=  3.14505e-08 trig=  2.87588e-08
tplh                =  4.53747e-09 targ=  1.12814e-07 trig=  1.08276e-07
i_vdd_avg           =  -1.49288e-06 from=  1.00000e-08 to=  3.30003e-07
power_avg_uw        =  2.56347e+00


Total analysis time (seconds) = 0.37437

Total elapsed time (seconds) = 0.531 

Total DRAM available = 16384.000 MB.
DRAM currently available =  146.797 MB.
Maximum ngspice program size =   26.797 MB.
Current ngspice program size =   26.797 MB.

