
Note: No compatibility mode selected!


Circuit: INV seed characterization sample 4103010

Doing analysis at TEMP = 85.398200 and TNOM = 27.000000

Using SPARSE 1.3 as Direct Linear Solver

Initial Transient Solution
--------------------------

Node                                   Voltage
----                                   -------
vdd                                    1.92272
in                                           0
out                                    1.92272
vin#branch                                   0
vdd#branch                         -1.1349e-10

 Reference value :  6.41830e-08
No. of Data Rows : 60044

  Measurements for Transient Analysis

tphl                =  4.93957e-10 targ=  2.70296e-09 trig=  2.20900e-09
tplh                =  5.40559e-10 targ=  2.31676e-08 trig=  2.26270e-08
i_vdd_avg           =  -5.39556e-06 from=  5.00000e-09 to=  1.10001e-07
power_avg_uw        =  1.03741e+01


Total analysis time (seconds) = 0.320193

Total elapsed time (seconds) = 0.398 

Total DRAM available = 16384.000 MB.
DRAM currently available =  266.609 MB.
Maximum ngspice program size =   12.609 MB.
Current ngspice program size =   11.906 MB.

