
Note: No compatibility mode selected!


Circuit: NOR2 seed characterization sample 4103020

Doing analysis at TEMP = 85.184900 and TNOM = 27.000000

Using SPARSE 1.3 as Direct Linear Solver

Initial Transient Solution
--------------------------

Node                                   Voltage
----                                   -------
vdd                                    1.91924
in                                           0
out                                    1.91924
pmid                                   1.91924
vin#branch                                   0
vdd#branch                        -5.66995e-10

 Reference value :  3.67724e-08
 Reference value :  9.00647e-08
No. of Data Rows : 60044

  Measurements for Transient Analysis

tphl                =  1.43010e-10 targ=  2.36286e-09 trig=  2.21985e-09
tplh                =  4.41428e-10 targ=  2.31010e-08 trig=  2.26596e-08
i_vdd_avg           =  -4.22711e-06 from=  5.00000e-09 to=  1.10000e-07
power_avg_uw        =  8.11284e+00


Total analysis time (seconds) = 0.531651

Total elapsed time (seconds) = 0.618 

Total DRAM available = 16384.000 MB.
DRAM currently available =  301.156 MB.
Maximum ngspice program size =   12.781 MB.
Current ngspice program size =   12.156 MB.

