
Note: No compatibility mode selected!


Circuit: NAND2 seed characterization sample 4103032

Doing analysis at TEMP = 56.345000 and TNOM = 27.000000

Using SPARSE 1.3 as Direct Linear Solver

Initial Transient Solution
--------------------------

Node                                   Voltage
----                                   -------
vdd                                    1.93194
in                                           0
out                                    1.93194
nmid                                 0.0586895
vin#branch                                   0
vdd#branch                        -1.47434e-11

 Reference value :  4.03326e-08
 Reference value :  9.67988e-08
No. of Data Rows : 60044

  Measurements for Transient Analysis

tphl                =  2.25622e-10 targ=  2.43453e-09 trig=  2.20891e-09
tplh                =  1.33084e-10 targ=  2.27598e-08 trig=  2.26267e-08
i_vdd_avg           =  -3.30627e-06 from=  5.00000e-09 to=  1.10001e-07
power_avg_uw        =  6.38751e+00


Total analysis time (seconds) = 0.511292

Total elapsed time (seconds) = 0.588 

Total DRAM available = 16384.000 MB.
DRAM currently available =  284.375 MB.
Maximum ngspice program size =   12.562 MB.
Current ngspice program size =   11.594 MB.

