
Note: No compatibility mode selected!


Circuit: NOR2 seed characterization sample 4103019

Doing analysis at TEMP = -16.129400 and TNOM = 27.000000

Using SPARSE 1.3 as Direct Linear Solver

Initial Transient Solution
--------------------------

Node                                   Voltage
----                                   -------
vdd                                    1.65387
in                                           0
out                                    1.65387
pmid                                   1.65387
vin#branch                                   0
vdd#branch                         -3.9223e-12

 Reference value :  3.78312e-08
 Reference value :  9.15071e-08
No. of Data Rows : 60044

  Measurements for Transient Analysis

tphl                =  1.46739e-10 targ=  2.34279e-09 trig=  2.19605e-09
tplh                =  4.18363e-10 targ=  2.30065e-08 trig=  2.25881e-08
i_vdd_avg           =  -4.62739e-06 from=  5.00000e-09 to=  1.10001e-07
power_avg_uw        =  7.65310e+00


Total analysis time (seconds) = 0.527791

Total elapsed time (seconds) = 0.611 

Total DRAM available = 16384.000 MB.
DRAM currently available =  296.656 MB.
Maximum ngspice program size =   12.797 MB.
Current ngspice program size =   12.234 MB.

