
Note: No compatibility mode selected!


Circuit: NOR2 seed characterization sample 4103024

Doing analysis at TEMP = 56.370600 and TNOM = 27.000000

Using SPARSE 1.3 as Direct Linear Solver

Initial Transient Solution
--------------------------

Node                                   Voltage
----                                   -------
vdd                                    1.84598
in                                           0
out                                    1.84598
pmid                                   1.84598
vin#branch                                   0
vdd#branch                        -7.56946e-11

 Reference value :  4.01681e-08
 Reference value :  9.95806e-08
No. of Data Rows : 60044

  Measurements for Transient Analysis

tphl                =  1.11419e-10 targ=  2.20620e-09 trig=  2.09478e-09
tplh                =  4.01939e-10 targ=  2.26863e-08 trig=  2.22843e-08
i_vdd_avg           =  -2.87751e-06 from=  5.00000e-09 to=  1.10000e-07
power_avg_uw        =  5.31183e+00


Total analysis time (seconds) = 0.486769

Total elapsed time (seconds) = 0.579 

Total DRAM available = 16384.000 MB.
DRAM currently available =  293.141 MB.
Maximum ngspice program size =   13.234 MB.
Current ngspice program size =   12.609 MB.

