
Note: No compatibility mode selected!


Circuit: XOR2 seed characterization sample 4103011

Doing analysis at TEMP = 60.900300 and TNOM = 27.000000

Using SPARSE 1.3 as Direct Linear Solver

Initial Transient Solution
--------------------------

Node                                   Voltage
----                                   -------
vdd                                    1.72261
in                                           0
b                                      1.72261
abar                                   1.72261
bbar                               7.81445e-09
out                                    1.72261
vb#branch                                    0
vin#branch                         7.15933e-11
vdd#branch                        -1.33361e-10

 Reference value :  2.32185e-08
 Reference value :  5.57158e-08
 Reference value :  8.93898e-08
No. of Data Rows : 60041

  Measurements for Transient Analysis

tphl                =  3.97010e-10 targ=  2.59239e-09 trig=  2.19538e-09
tplh                =  5.51563e-10 targ=  2.31377e-08 trig=  2.25861e-08
i_vdd_avg           =  -4.52496e-06 from=  5.00000e-09 to=  1.10001e-07
power_avg_uw        =  7.79474e+00


Total analysis time (seconds) = 0.867225

Total elapsed time (seconds) = 0.945 

Total DRAM available = 16384.000 MB.
DRAM currently available =  265.812 MB.
Maximum ngspice program size =   12.578 MB.
Current ngspice program size =   12.141 MB.

