
Note: No compatibility mode selected!


Circuit: XOR2 seed characterization sample 4103027

Doing analysis at TEMP = -8.310750 and TNOM = 27.000000

Using SPARSE 1.3 as Direct Linear Solver

Initial Transient Solution
--------------------------

Node                                   Voltage
----                                   -------
vdd                                    1.82741
in                                           0
b                                      1.82741
abar                                   1.82741
bbar                               1.56628e-09
out                                    1.82741
vb#branch                                    0
vin#branch                         2.46412e-12
vdd#branch                        -1.21253e-11

 Reference value :  2.29962e-08
 Reference value :  5.41946e-08
 Reference value :  8.61466e-08
No. of Data Rows : 60044

  Measurements for Transient Analysis

tphl                =  2.71034e-10 targ=  2.39084e-09 trig=  2.11981e-09
tplh                =  3.15896e-10 targ=  2.26753e-08 trig=  2.23594e-08
i_vdd_avg           =  -4.90632e-06 from=  5.00000e-09 to=  1.10000e-07
power_avg_uw        =  8.96585e+00


Total analysis time (seconds) = 0.893912

Total elapsed time (seconds) = 0.972 

Total DRAM available = 16384.000 MB.
DRAM currently available =  278.891 MB.
Maximum ngspice program size =   12.609 MB.
Current ngspice program size =   12.141 MB.

