
Note: No compatibility mode selected!


Circuit: XOR2 seed characterization sample 4103033

Doing analysis at TEMP = 69.450300 and TNOM = 27.000000

Using SPARSE 1.3 as Direct Linear Solver

Initial Transient Solution
--------------------------

Node                                   Voltage
----                                   -------
vdd                                    1.62938
in                                           0
b                                      1.62938
abar                                   1.62938
bbar                               1.57482e-08
out                                    1.62938
vb#branch                                    0
vin#branch                         6.40035e-11
vdd#branch                        -1.19526e-10

 Reference value :  2.22226e-08
 Reference value :  5.34328e-08
 Reference value :  8.96328e-08
No. of Data Rows : 60044

  Measurements for Transient Analysis

tphl                =  1.56887e-10 targ=  2.20679e-09 trig=  2.04990e-09
tplh                =  2.14580e-10 targ=  2.23643e-08 trig=  2.21497e-08
i_vdd_avg           =  -1.03389e-06 from=  5.00000e-09 to=  1.10001e-07
power_avg_uw        =  1.68460e+00


Total analysis time (seconds) = 0.859614

Total elapsed time (seconds) = 0.938 

Total DRAM available = 16384.000 MB.
DRAM currently available =  287.797 MB.
Maximum ngspice program size =   12.578 MB.
Current ngspice program size =   12.109 MB.

