
Note: No compatibility mode selected!


Circuit: XOR2 seed characterization sample 4103034

Doing analysis at TEMP = 74.854400 and TNOM = 27.000000

Using SPARSE 1.3 as Direct Linear Solver

Initial Transient Solution
--------------------------

Node                                   Voltage
----                                   -------
vdd                                     1.8738
in                                           0
b                                       1.8738
abar                                    1.8738
bbar                               1.98622e-08
out                                     1.8738
vb#branch                                    0
vin#branch                         1.23939e-10
vdd#branch                        -2.25065e-10

 Reference value :  1.90656e-08
 Reference value :  5.03396e-08
 Reference value :  8.66616e-08
No. of Data Rows : 60041

  Measurements for Transient Analysis

tphl                =  1.35024e-10 targ=  2.29634e-09 trig=  2.16131e-09
tplh                =  1.73366e-10 targ=  2.26573e-08 trig=  2.24839e-08
i_vdd_avg           =  -9.44027e-07 from=  5.00000e-09 to=  1.10000e-07
power_avg_uw        =  1.76892e+00


Total analysis time (seconds) = 0.855341

Total elapsed time (seconds) = 0.958 

Total DRAM available = 16384.000 MB.
DRAM currently available =  287.797 MB.
Maximum ngspice program size =   13.500 MB.
Current ngspice program size =   13.125 MB.

