
Note: No compatibility mode selected!


Circuit: XOR2 seed characterization sample 4103006

Doing analysis at TEMP = 13.713000 and TNOM = 27.000000

Using SPARSE 1.3 as Direct Linear Solver

Initial Transient Solution
--------------------------

Node                                   Voltage
----                                   -------
vdd                                    1.69845
in                                           0
b                                      1.69845
abar                                   1.69845
bbar                               5.29006e-09
out                                    1.69845
vb#branch                                    0
vin#branch                          2.7597e-12
vdd#branch                        -1.22555e-11

 Reference value :  2.36839e-08
 Reference value :  5.56385e-08
 Reference value :  8.78205e-08
No. of Data Rows : 60047

  Measurements for Transient Analysis

tphl                =  9.00742e-10 targ=  3.07548e-09 trig=  2.17473e-09
tplh                =  9.15235e-10 targ=  2.34394e-08 trig=  2.25242e-08
i_vdd_avg           =  -5.17870e-06 from=  5.00000e-09 to=  1.10002e-07
power_avg_uw        =  8.79576e+00


Total analysis time (seconds) = 0.87848

Total elapsed time (seconds) = 0.957 

Total DRAM available = 16384.000 MB.
DRAM currently available =  263.625 MB.
Maximum ngspice program size =   12.578 MB.
Current ngspice program size =   11.844 MB.

