
Note: No compatibility mode selected!


Circuit: INV seed characterization sample 4103046

Doing analysis at TEMP = 97.935700 and TNOM = 27.000000

Using SPARSE 1.3 as Direct Linear Solver

Initial Transient Solution
--------------------------

Node                                   Voltage
----                                   -------
vdd                                    1.90409
in                                           0
out                                    1.90409
vin#branch                                   0
vdd#branch                        -3.74312e-10

 Reference value :  6.97779e-08
No. of Data Rows : 60044

  Measurements for Transient Analysis

tphl                =  2.12061e-10 targ=  2.42329e-09 trig=  2.21123e-09
tplh                =  2.47551e-10 targ=  2.28812e-08 trig=  2.26337e-08
i_vdd_avg           =  -2.86963e-06 from=  5.00000e-09 to=  1.10002e-07
power_avg_uw        =  5.46403e+00


Total analysis time (seconds) = 0.302968

Total elapsed time (seconds) = 0.377 

Total DRAM available = 16384.000 MB.
DRAM currently available =  302.203 MB.
Maximum ngspice program size =   12.562 MB.
Current ngspice program size =   11.656 MB.

