
Note: No compatibility mode selected!


Circuit: XOR2 seed characterization sample 4103025

Doing analysis at TEMP = 17.047800 and TNOM = 27.000000

Using SPARSE 1.3 as Direct Linear Solver

Initial Transient Solution
--------------------------

Node                                   Voltage
----                                   -------
vdd                                    1.83895
in                                           0
b                                      1.83895
abar                                   1.83895
bbar                               9.46846e-10
out                                    1.83895
vb#branch                                    0
vin#branch                         1.48532e-11
vdd#branch                        -3.42604e-11

 Reference value :  2.29661e-08
 Reference value :  5.45035e-08
 Reference value :  8.64495e-08
No. of Data Rows : 60041

  Measurements for Transient Analysis

tphl                =  2.57636e-10 targ=  2.48691e-09 trig=  2.22927e-09
tplh                =  2.67636e-10 targ=  2.29555e-08 trig=  2.26878e-08
i_vdd_avg           =  -7.90252e-06 from=  5.00000e-09 to=  1.10000e-07
power_avg_uw        =  1.45323e+01


Total analysis time (seconds) = 0.892032

Total elapsed time (seconds) = 0.970 

Total DRAM available = 16384.000 MB.
DRAM currently available =  277.734 MB.
Maximum ngspice program size =   12.578 MB.
Current ngspice program size =   12.000 MB.

