
Note: No compatibility mode selected!


Circuit: NAND2 seed characterization sample 4103021

Doing analysis at TEMP = 81.022500 and TNOM = 27.000000

Using SPARSE 1.3 as Direct Linear Solver

Initial Transient Solution
--------------------------

Node                                   Voltage
----                                   -------
vdd                                     1.8006
in                                           0
out                                     1.8006
nmid                                 0.0572641
vin#branch                                   0
vdd#branch                        -3.44168e-11

 Reference value :  4.07370e-08
 Reference value :  1.01110e-07
No. of Data Rows : 60041

  Measurements for Transient Analysis

tphl                =  4.14969e-10 targ=  2.47846e-09 trig=  2.06349e-09
tplh                =  1.62791e-10 targ=  2.23533e-08 trig=  2.21905e-08
i_vdd_avg           =  -5.11697e-06 from=  5.00000e-09 to=  1.10001e-07
power_avg_uw        =  9.21361e+00


Total analysis time (seconds) = 0.47839

Total elapsed time (seconds) = 0.570 

Total DRAM available = 16384.000 MB.
DRAM currently available =  278.906 MB.
Maximum ngspice program size =   12.906 MB.
Current ngspice program size =   12.203 MB.

