
Note: No compatibility mode selected!


Circuit: NOR2 seed characterization sample 4103048

Doing analysis at TEMP = 65.394400 and TNOM = 27.000000

Using SPARSE 1.3 as Direct Linear Solver

Initial Transient Solution
--------------------------

Node                                   Voltage
----                                   -------
vdd                                     1.6821
in                                           0
out                                     1.6821
pmid                                    1.6821
vin#branch                                   0
vdd#branch                        -1.34435e-10

 Reference value :  4.40498e-08
 Reference value :  1.03039e-07
No. of Data Rows : 60041

  Measurements for Transient Analysis

tphl                =  1.08516e-10 targ=  2.22194e-09 trig=  2.11342e-09
tplh                =  3.07221e-10 targ=  2.26475e-08 trig=  2.23403e-08
i_vdd_avg           =  -2.30721e-06 from=  5.00000e-09 to=  1.10001e-07
power_avg_uw        =  3.88096e+00


Total analysis time (seconds) = 0.490495

Total elapsed time (seconds) = 0.565 

Total DRAM available = 16384.000 MB.
DRAM currently available =  302.203 MB.
Maximum ngspice program size =   12.562 MB.
Current ngspice program size =   12.266 MB.

