
Note: No compatibility mode selected!


Circuit: INV seed characterization sample 4103002

Doing analysis at TEMP = 24.067000 and TNOM = 27.000000

Using SPARSE 1.3 as Direct Linear Solver

Initial Transient Solution
--------------------------

Node                                   Voltage
----                                   -------
vdd                                    1.83041
in                                           0
out                                    1.83041
vin#branch                                   0
vdd#branch                        -3.99862e-12

 Reference value :  6.32312e-08
No. of Data Rows : 60047

  Measurements for Transient Analysis

tphl                =  5.35778e-10 targ=  2.66932e-09 trig=  2.13354e-09
tplh                =  6.91122e-10 targ=  2.30917e-08 trig=  2.24006e-08
i_vdd_avg           =  -4.35944e-06 from=  5.00000e-09 to=  1.10001e-07
power_avg_uw        =  7.97956e+00


Total analysis time (seconds) = 0.326489

Total elapsed time (seconds) = 0.402 

Total DRAM available = 16384.000 MB.
DRAM currently available =  283.047 MB.
Maximum ngspice program size =   12.562 MB.
Current ngspice program size =   11.594 MB.

