
Note: No compatibility mode selected!


Circuit: INV seed characterization sample 4103018

Doing analysis at TEMP = 17.661500 and TNOM = 27.000000

Using SPARSE 1.3 as Direct Linear Solver

Initial Transient Solution
--------------------------

Node                                   Voltage
----                                   -------
vdd                                    1.77171
in                                           0
out                                    1.77171
vin#branch                                   0
vdd#branch                        -5.92914e-12

 Reference value :  6.16796e-08
No. of Data Rows : 60041

  Measurements for Transient Analysis

tphl                =  2.68603e-10 targ=  2.44591e-09 trig=  2.17731e-09
tplh                =  2.66242e-10 targ=  2.27982e-08 trig=  2.25319e-08
i_vdd_avg           =  -5.53487e-06 from=  5.00000e-09 to=  1.10000e-07
power_avg_uw        =  9.80618e+00


Total analysis time (seconds) = 0.339129

Total elapsed time (seconds) = 0.417 

Total DRAM available = 16384.000 MB.
DRAM currently available =  253.688 MB.
Maximum ngspice program size =   12.609 MB.
Current ngspice program size =   11.734 MB.

