
Note: No compatibility mode selected!


Circuit: NOR2 seed characterization sample 4103030

Doing analysis at TEMP = 2.635450 and TNOM = 27.000000

Using SPARSE 1.3 as Direct Linear Solver

Initial Transient Solution
--------------------------

Node                                   Voltage
----                                   -------
vdd                                    1.84316
in                                           0
out                                    1.84316
pmid                                   1.84316
vin#branch                                   0
vdd#branch                         -4.5855e-12

 Reference value :  3.95689e-08
 Reference value :  9.51139e-08
No. of Data Rows : 60041

  Measurements for Transient Analysis

tphl                =  3.86963e-11 targ=  2.04616e-09 trig=  2.00746e-09
tplh                =  2.32730e-10 targ=  2.22551e-08 trig=  2.20224e-08
i_vdd_avg           =  -7.61815e-07 from=  5.00000e-09 to=  1.10001e-07
power_avg_uw        =  1.40415e+00


Total analysis time (seconds) = 0.520231

Total elapsed time (seconds) = 0.597 

Total DRAM available = 16384.000 MB.
DRAM currently available =  284.375 MB.
Maximum ngspice program size =   12.812 MB.
Current ngspice program size =   12.812 MB.

