
Note: No compatibility mode selected!


Circuit: NAND2 seed characterization sample 4103005

Doing analysis at TEMP = 41.480900 and TNOM = 27.000000

Using SPARSE 1.3 as Direct Linear Solver

Initial Transient Solution
--------------------------

Node                                   Voltage
----                                   -------
vdd                                    1.76293
in                                           0
out                                    1.76293
nmid                                 0.0525807
vin#branch                                   0
vdd#branch                        -2.94711e-12

 Reference value :  4.18240e-08
 Reference value :  9.81145e-08
No. of Data Rows : 60044

  Measurements for Transient Analysis

tphl                =  8.31935e-10 targ=  3.05769e-09 trig=  2.22576e-09
tplh                =  3.00714e-10 targ=  2.29780e-08 trig=  2.26773e-08
i_vdd_avg           =  -4.13054e-06 from=  5.00000e-09 to=  1.10000e-07
power_avg_uw        =  7.28185e+00


Total analysis time (seconds) = 0.515923

Total elapsed time (seconds) = 0.593 

Total DRAM available = 16384.000 MB.
DRAM currently available =  258.578 MB.
Maximum ngspice program size =   12.562 MB.
Current ngspice program size =   11.656 MB.

