
Note: No compatibility mode selected!


Circuit: NAND2 seed characterization sample 4103007

Doing analysis at TEMP = 63.446600 and TNOM = 27.000000

Using SPARSE 1.3 as Direct Linear Solver

Initial Transient Solution
--------------------------

Node                                   Voltage
----                                   -------
vdd                                    1.83575
in                                           0
out                                    1.83575
nmid                                  0.057003
vin#branch                                   0
vdd#branch                        -7.32007e-12

 Reference value :  4.20330e-08
 Reference value :  9.78978e-08
No. of Data Rows : 60041

  Measurements for Transient Analysis

tphl                =  6.96026e-10 targ=  2.72744e-09 trig=  2.03141e-09
tplh                =  3.11937e-10 targ=  2.24062e-08 trig=  2.20942e-08
i_vdd_avg           =  -5.24239e-06 from=  5.00000e-09 to=  1.10001e-07
power_avg_uw        =  9.62371e+00


Total analysis time (seconds) = 0.519663

Total elapsed time (seconds) = 0.597 

Total DRAM available = 16384.000 MB.
DRAM currently available =  263.625 MB.
Maximum ngspice program size =   12.562 MB.
Current ngspice program size =   12.188 MB.

