
Note: No compatibility mode selected!


Circuit: NAND2 seed characterization sample 4103028

Doing analysis at TEMP = -0.095612 and TNOM = 27.000000

Using SPARSE 1.3 as Direct Linear Solver

Initial Transient Solution
--------------------------

Node                                   Voltage
----                                   -------
vdd                                    1.68715
in                                           0
out                                    1.68715
nmid                                 0.0286833
vin#branch                                   0
vdd#branch                        -1.79846e-12

 Reference value :  4.02840e-08
 Reference value :  9.51555e-08
No. of Data Rows : 60044

  Measurements for Transient Analysis

tphl                =  3.91945e-10 targ=  2.57219e-09 trig=  2.18024e-09
tplh                =  1.83437e-10 targ=  2.27242e-08 trig=  2.25407e-08
i_vdd_avg           =  -1.86370e-06 from=  5.00000e-09 to=  1.10002e-07
power_avg_uw        =  3.14434e+00


Total analysis time (seconds) = 0.531686

Total elapsed time (seconds) = 0.609 

Total DRAM available = 16384.000 MB.
DRAM currently available =  302.375 MB.
Maximum ngspice program size =   12.609 MB.
Current ngspice program size =   12.422 MB.

