
Note: No compatibility mode selected!


Circuit: XOR2 seed characterization sample 4024032

Doing analysis at TEMP = 69.931000 and TNOM = 27.000000

Using SPARSE 1.3 as Direct Linear Solver

Initial Transient Solution
--------------------------

Node                                   Voltage
----                                   -------
vdd                                    1.89257
in                                           0
b                                      1.89257
abar                                   1.89257
bbar                               2.48302e-09
out                                    1.89257
vb#branch                                    0
vin#branch                         1.84049e-11
vdd#branch                        -4.06644e-11

 Reference value :  2.68121e-08
 Reference value :  6.17806e-08
 Reference value :  9.86526e-08
No. of Data Rows : 60044

  Measurements for Transient Analysis

tphl                =  2.94156e-10 targ=  2.51693e-09 trig=  2.22278e-09
tplh                =  4.30074e-10 targ=  2.30984e-08 trig=  2.26683e-08
i_vdd_avg           =  -3.95942e-06 from=  5.00000e-09 to=  1.10000e-07
power_avg_uw        =  7.49347e+00


Total analysis time (seconds) = 0.802633

Total elapsed time (seconds) = 0.872 

Total DRAM available = 16384.000 MB.
DRAM currently available =  322.266 MB.
Maximum ngspice program size =   12.578 MB.
Current ngspice program size =   12.031 MB.

