
Note: No compatibility mode selected!


Circuit: XOR2 seed characterization sample 4024016

Doing analysis at TEMP = 63.237200 and TNOM = 27.000000

Using SPARSE 1.3 as Direct Linear Solver

Initial Transient Solution
--------------------------

Node                                   Voltage
----                                   -------
vdd                                    1.74985
in                                           0
b                                      1.74985
abar                                   1.74985
bbar                               2.78261e-09
out                                    1.74985
vb#branch                                    0
vin#branch                         1.00223e-11
vdd#branch                         -2.5163e-11

 Reference value :  2.65406e-08
 Reference value :  6.13708e-08
 Reference value :  9.82568e-08
No. of Data Rows : 60044

  Measurements for Transient Analysis

tphl                =  4.84597e-10 targ=  2.69650e-09 trig=  2.21190e-09
tplh                =  5.19310e-10 targ=  2.31550e-08 trig=  2.26357e-08
i_vdd_avg           =  -5.56038e-06 from=  5.00000e-09 to=  1.10001e-07
power_avg_uw        =  9.72984e+00


Total analysis time (seconds) = 0.804019

Total elapsed time (seconds) = 0.875 

Total DRAM available = 16384.000 MB.
DRAM currently available =  314.500 MB.
Maximum ngspice program size =   13.281 MB.
Current ngspice program size =   13.281 MB.

