
Note: No compatibility mode selected!


Circuit: XOR2 seed characterization sample 4024028

Doing analysis at TEMP = 34.348700 and TNOM = 27.000000

Using SPARSE 1.3 as Direct Linear Solver

Initial Transient Solution
--------------------------

Node                                   Voltage
----                                   -------
vdd                                     1.8642
in                                           0
b                                       1.8642
abar                                    1.8642
bbar                               1.20312e-09
out                                     1.8642
vb#branch                                    0
vin#branch                         4.00514e-12
vdd#branch                        -1.50341e-11

 Reference value :  2.71007e-08
 Reference value :  6.24687e-08
 Reference value :  1.00071e-07
No. of Data Rows : 60044

  Measurements for Transient Analysis

tphl                =  2.06441e-10 targ=  2.22637e-09 trig=  2.01993e-09
tplh                =  2.82562e-10 targ=  2.23424e-08 trig=  2.20598e-08
i_vdd_avg           =  -5.53688e-06 from=  5.00000e-09 to=  1.10001e-07
power_avg_uw        =  1.03219e+01


Total analysis time (seconds) = 0.792316

Total elapsed time (seconds) = 0.862 

Total DRAM available = 16384.000 MB.
DRAM currently available =  321.531 MB.
Maximum ngspice program size =   12.578 MB.
Current ngspice program size =   11.844 MB.

