
Note: No compatibility mode selected!


Circuit: XOR2 seed characterization sample 4024044

Doing analysis at TEMP = 98.790900 and TNOM = 27.000000

Using SPARSE 1.3 as Direct Linear Solver

Initial Transient Solution
--------------------------

Node                                   Voltage
----                                   -------
vdd                                     1.7898
in                                           0
b                                       1.7898
abar                                    1.7898
bbar                               6.11152e-09
out                                     1.7898
vb#branch                                    0
vin#branch                         1.39463e-10
vdd#branch                        -2.56511e-10

 Reference value :  2.56201e-08
 Reference value :  6.04706e-08
 Reference value :  9.71646e-08
No. of Data Rows : 60044

  Measurements for Transient Analysis

tphl                =  2.86958e-10 targ=  2.37974e-09 trig=  2.09278e-09
tplh                =  4.03737e-10 targ=  2.26821e-08 trig=  2.22783e-08
i_vdd_avg           =  -6.65734e-06 from=  5.00000e-09 to=  1.10000e-07
power_avg_uw        =  1.19153e+01


Total analysis time (seconds) = 0.806512

Total elapsed time (seconds) = 0.883 

Total DRAM available = 16384.000 MB.
DRAM currently available =  302.219 MB.
Maximum ngspice program size =   13.312 MB.
Current ngspice program size =   13.312 MB.

