
Note: No compatibility mode selected!


Circuit: NOR2 seed characterization sample 4024035

Doing analysis at TEMP = -3.598920 and TNOM = 27.000000

Using SPARSE 1.3 as Direct Linear Solver

Initial Transient Solution
--------------------------

Node                                   Voltage
----                                   -------
vdd                                    1.70905
in                                           0
out                                    1.70905
pmid                                   1.70905
vin#branch                                   0
vdd#branch                        -3.58418e-12

 Reference value :  4.64970e-08
 Reference value :  1.06755e-07
No. of Data Rows : 60044

  Measurements for Transient Analysis

tphl                =  6.65584e-11 targ=  2.21957e-09 trig=  2.15301e-09
tplh                =  2.09457e-10 targ=  2.26685e-08 trig=  2.24590e-08
i_vdd_avg           =  -1.63224e-06 from=  5.00000e-09 to=  1.10001e-07
power_avg_uw        =  2.78958e+00


Total analysis time (seconds) = 0.48031

Total elapsed time (seconds) = 0.549 

Total DRAM available = 16384.000 MB.
DRAM currently available =  325.547 MB.
Maximum ngspice program size =   12.562 MB.
Current ngspice program size =   11.656 MB.

