
Note: No compatibility mode selected!


Circuit: INV seed characterization sample 4024021

Doing analysis at TEMP = -10.397200 and TNOM = 27.000000

Using SPARSE 1.3 as Direct Linear Solver

Initial Transient Solution
--------------------------

Node                                   Voltage
----                                   -------
vdd                                    1.87296
in                                           0
out                                    1.87296
vin#branch                                   0
vdd#branch                        -1.91131e-12

 Reference value :  7.49106e-08
No. of Data Rows : 60044

  Measurements for Transient Analysis

tphl                =  1.57355e-10 targ=  2.19826e-09 trig=  2.04090e-09
tplh                =  1.47244e-10 targ=  2.22700e-08 trig=  2.21227e-08
i_vdd_avg           =  -5.35730e-06 from=  5.00000e-09 to=  1.10001e-07
power_avg_uw        =  1.00340e+01


Total analysis time (seconds) = 0.282214

Total elapsed time (seconds) = 0.353 

Total DRAM available = 16384.000 MB.
DRAM currently available =  308.656 MB.
Maximum ngspice program size =   13.516 MB.
Current ngspice program size =   12.656 MB.

