
Note: No compatibility mode selected!


Circuit: NOR2 seed characterization sample 4024019

Doing analysis at TEMP = 72.998600 and TNOM = 27.000000

Using SPARSE 1.3 as Direct Linear Solver

Initial Transient Solution
--------------------------

Node                                   Voltage
----                                   -------
vdd                                    1.88705
in                                           0
out                                    1.88705
pmid                                   1.88705
vin#branch                                   0
vdd#branch                        -2.56225e-11

 Reference value :  4.32739e-08
 Reference value :  1.04181e-07
No. of Data Rows : 60041

  Measurements for Transient Analysis

tphl                =  1.47296e-10 targ=  2.17175e-09 trig=  2.02445e-09
tplh                =  9.36710e-10 targ=  2.30101e-08 trig=  2.20734e-08
i_vdd_avg           =  -5.75553e-06 from=  5.00000e-09 to=  1.10001e-07
power_avg_uw        =  1.08610e+01


Total analysis time (seconds) = 0.477325

Total elapsed time (seconds) = 0.559 

Total DRAM available = 16384.000 MB.
DRAM currently available =  301.547 MB.
Maximum ngspice program size =   12.797 MB.
Current ngspice program size =   11.953 MB.

