
Note: No compatibility mode selected!


Circuit: NAND2 seed characterization sample 4024010

Doing analysis at TEMP = 59.141400 and TNOM = 27.000000

Using SPARSE 1.3 as Direct Linear Solver

Initial Transient Solution
--------------------------

Node                                   Voltage
----                                   -------
vdd                                    1.97303
in                                           0
out                                    1.97303
nmid                                 0.0468774
vin#branch                                   0
vdd#branch                        -2.32341e-12

 Reference value :  3.95683e-08
 Reference value :  1.01070e-07
No. of Data Rows : 60041

  Measurements for Transient Analysis

tphl                =  3.67057e-10 targ=  2.53838e-09 trig=  2.17133e-09
tplh                =  1.84305e-10 targ=  2.26983e-08 trig=  2.25140e-08
i_vdd_avg           =  -1.12242e-06 from=  5.00000e-09 to=  1.10000e-07
power_avg_uw        =  2.21456e+00


Total analysis time (seconds) = 0.476236

Total elapsed time (seconds) = 0.572 

Total DRAM available = 16384.000 MB.
DRAM currently available =  314.281 MB.
Maximum ngspice program size =   12.875 MB.
Current ngspice program size =   12.219 MB.

