
Note: No compatibility mode selected!


Circuit: INV seed characterization sample 4024037

Doing analysis at TEMP = 97.168700 and TNOM = 27.000000

Using SPARSE 1.3 as Direct Linear Solver

Initial Transient Solution
--------------------------

Node                                   Voltage
----                                   -------
vdd                                    1.88451
in                                           0
out                                    1.88451
vin#branch                                   0
vdd#branch                        -4.37106e-11

 Reference value :  7.27259e-08
No. of Data Rows : 60044

  Measurements for Transient Analysis

tphl                =  2.45262e-10 targ=  2.30650e-09 trig=  2.06124e-09
tplh                =  2.84994e-10 targ=  2.24687e-08 trig=  2.21837e-08
i_vdd_avg           =  -4.37787e-06 from=  5.00000e-09 to=  1.10002e-07
power_avg_uw        =  8.25014e+00


Total analysis time (seconds) = 0.296105

Total elapsed time (seconds) = 0.367 

Total DRAM available = 16384.000 MB.
DRAM currently available =  328.266 MB.
Maximum ngspice program size =   12.562 MB.
Current ngspice program size =   11.844 MB.

