
Note: No compatibility mode selected!


Circuit: INV seed characterization sample 4024017

Doing analysis at TEMP = 28.973900 and TNOM = 27.000000

Using SPARSE 1.3 as Direct Linear Solver

Initial Transient Solution
--------------------------

Node                                   Voltage
----                                   -------
vdd                                    1.66269
in                                           0
out                                    1.66269
vin#branch                                   0
vdd#branch                        -2.83647e-12

 Reference value :  7.38496e-08
No. of Data Rows : 60044

  Measurements for Transient Analysis

tphl                =  1.46166e-10 targ=  2.37831e-09 trig=  2.23215e-09
tplh                =  1.74031e-10 targ=  2.28705e-08 trig=  2.26964e-08
i_vdd_avg           =  -1.94496e-06 from=  5.00000e-09 to=  1.10002e-07
power_avg_uw        =  3.23386e+00


Total analysis time (seconds) = 0.290669

Total elapsed time (seconds) = 0.360 

Total DRAM available = 16384.000 MB.
DRAM currently available =  314.500 MB.
Maximum ngspice program size =   12.688 MB.
Current ngspice program size =   12.688 MB.

