
Note: No compatibility mode selected!


Circuit: NOR2 seed characterization sample 6400066

Doing analysis at TEMP = -4.050520 and TNOM = 27.000000

Using SPARSE 1.3 as Direct Linear Solver

Initial Transient Solution
--------------------------

Node                                   Voltage
----                                   -------
vdd                                    1.79512
in                                           0
out                                    1.79512
pmid                                   1.79512
vin#branch                                   0
vdd#branch                          -5.876e-12

 Reference value :  1.77498e-08
 Reference value :  7.11827e-08
No. of Data Rows : 60041

  Measurements for Transient Analysis

tphl                =  2.06413e-11 targ=  2.24606e-09 trig=  2.22542e-09
tplh                =  1.57162e-10 targ=  2.28334e-08 trig=  2.26763e-08
i_vdd_avg           =  -9.44515e-07 from=  5.00000e-09 to=  1.10001e-07
power_avg_uw        =  1.69552e+00


Total analysis time (seconds) = 0.582722

Total elapsed time (seconds) = 0.711 

Total DRAM available = 16384.000 MB.
DRAM currently available =   89.578 MB.
Maximum ngspice program size =   16.094 MB.
Current ngspice program size =   16.094 MB.

