
Note: No compatibility mode selected!


Circuit: INV seed characterization sample 6400002

Doing analysis at TEMP = 32.429100 and TNOM = 27.000000

Using SPARSE 1.3 as Direct Linear Solver

Initial Transient Solution
--------------------------

Node                                   Voltage
----                                   -------
vdd                                    1.70635
in                                           0
out                                    1.70635
vin#branch                                   0
vdd#branch                        -2.26867e-11

 Reference value :  4.87418e-08
 Reference value :  1.07695e-07
No. of Data Rows : 60041

  Measurements for Transient Analysis

tphl                =  1.30631e-10 targ=  2.14903e-09 trig=  2.01840e-09
tplh                =  1.60525e-10 targ=  2.22157e-08 trig=  2.20552e-08
i_vdd_avg           =  -5.22261e-06 from=  5.00000e-09 to=  1.10001e-07
power_avg_uw        =  8.91160e+00


Total analysis time (seconds) = 0.566114

Total elapsed time (seconds) = 0.660 

Total DRAM available = 16384.000 MB.
DRAM currently available =  103.188 MB.
Maximum ngspice program size =   16.188 MB.
Current ngspice program size =   16.188 MB.

