
Note: No compatibility mode selected!


Circuit: INV seed characterization sample 6400018

Doing analysis at TEMP = 45.529200 and TNOM = 27.000000

Using SPARSE 1.3 as Direct Linear Solver

Initial Transient Solution
--------------------------

Node                                   Voltage
----                                   -------
vdd                                    1.69451
in                                           0
out                                    1.69451
vin#branch                                   0
vdd#branch                        -3.60757e-11

 Reference value :  4.80050e-08
 Reference value :  1.05849e-07
No. of Data Rows : 60044

  Measurements for Transient Analysis

tphl                =  8.91308e-11 targ=  2.27114e-09 trig=  2.18201e-09
tplh                =  1.38538e-10 targ=  2.26846e-08 trig=  2.25460e-08
i_vdd_avg           =  -1.07289e-06 from=  5.00000e-09 to=  1.10001e-07
power_avg_uw        =  1.81802e+00


Total analysis time (seconds) = 0.562779

Total elapsed time (seconds) = 0.657 

Total DRAM available = 16384.000 MB.
DRAM currently available =  103.188 MB.
Maximum ngspice program size =   13.766 MB.
Current ngspice program size =   13.766 MB.

