
Note: No compatibility mode selected!


Circuit: NAND2 seed characterization sample 6400038

Doing analysis at TEMP = -5.479400 and TNOM = 27.000000

Using SPARSE 1.3 as Direct Linear Solver

Initial Transient Solution
--------------------------

Node                                   Voltage
----                                   -------
vdd                                    1.88937
in                                           0
out                                    1.88937
nmid                                 0.0448441
vin#branch                                   0
vdd#branch                        -2.16944e-12

 Reference value :  2.92955e-08
 Reference value :  6.66775e-08
 Reference value :  1.04503e-07
No. of Data Rows : 60044

  Measurements for Transient Analysis

tphl                =  1.71890e-10 targ=  2.39300e-09 trig=  2.22111e-09
tplh                =  9.97828e-11 targ=  2.27631e-08 trig=  2.26633e-08
i_vdd_avg           =  -3.29580e-06 from=  5.00000e-09 to=  1.10001e-07
power_avg_uw        =  6.22698e+00


Total analysis time (seconds) = 0.884927

Total elapsed time (seconds) = 0.984 

Total DRAM available = 16384.000 MB.
DRAM currently available =   89.578 MB.
Maximum ngspice program size =   16.797 MB.
Current ngspice program size =   16.797 MB.

