
Note: No compatibility mode selected!


Circuit: NOR2 seed characterization sample 6400061

Doing analysis at TEMP = 14.518300 and TNOM = 27.000000

Using SPARSE 1.3 as Direct Linear Solver

Initial Transient Solution
--------------------------

Node                                   Voltage
----                                   -------
vdd                                    1.77025
in                                           0
out                                    1.77025
pmid                                   1.77025
vin#branch                                   0
vdd#branch                        -1.41911e-11

 Reference value :  3.13730e-08
 Reference value :  6.83930e-08
 Reference value :  1.06343e-07
No. of Data Rows : 60044

  Measurements for Transient Analysis

tphl                =  6.35201e-11 targ=  2.21653e-09 trig=  2.15301e-09
tplh                =  1.66060e-10 targ=  2.26251e-08 trig=  2.24590e-08
i_vdd_avg           =  -2.07445e-06 from=  5.00000e-09 to=  1.10001e-07
power_avg_uw        =  3.67230e+00


Total analysis time (seconds) = 0.876733

Total elapsed time (seconds) = 0.964 

Total DRAM available = 16384.000 MB.
DRAM currently available =   89.578 MB.
Maximum ngspice program size =   15.484 MB.
Current ngspice program size =   15.484 MB.

