
Note: No compatibility mode selected!


Circuit: NOR2 seed characterization sample 6210063

Doing analysis at TEMP = 60.902400 and TNOM = 27.000000

Using SPARSE 1.3 as Direct Linear Solver

Initial Transient Solution
--------------------------

Node                                   Voltage
----                                   -------
vdd                                    1.89434
in                                           0
out                                    1.89434
pmid                                   1.89434
vin#branch                                   0
vdd#branch                        -5.36843e-12

 Reference value :  3.40280e-08
 Reference value :  8.10180e-08
No. of Data Rows : 60047

  Measurements for Transient Analysis

tphl                =  1.89215e-10 targ=  2.39096e-09 trig=  2.20175e-09
tplh                =  5.23641e-10 targ=  2.31289e-08 trig=  2.26052e-08
i_vdd_avg           =  -5.21697e-06 from=  5.00000e-09 to=  1.10002e-07
power_avg_uw        =  9.88272e+00


Total analysis time (seconds) = 0.584489

Total elapsed time (seconds) = 0.683 

Total DRAM available = 16384.000 MB.
DRAM currently available =   86.859 MB.
Maximum ngspice program size =   14.781 MB.
Current ngspice program size =   14.781 MB.

