
Note: No compatibility mode selected!


Circuit: XOR2 seed characterization sample 6210092

Doing analysis at TEMP = 20.395000 and TNOM = 27.000000

Using SPARSE 1.3 as Direct Linear Solver

Initial Transient Solution
--------------------------

Node                                   Voltage
----                                   -------
vdd                                    1.71084
in                                           0
b                                      1.71084
abar                                   1.71084
bbar                               1.36176e-09
out                                    1.71084
vb#branch                                    0
vin#branch                         1.75684e-12
vdd#branch                         -1.0389e-11

 Reference value :  1.94823e-08
 Reference value :  4.57363e-08
 Reference value :  7.70335e-08
 Reference value :  1.09996e-07
No. of Data Rows : 60047

  Measurements for Transient Analysis

tphl                =  4.68467e-10 targ=  2.60610e-09 trig=  2.13764e-09
tplh                =  5.17669e-10 targ=  2.29306e-08 trig=  2.24129e-08
i_vdd_avg           =  -6.79134e-06 from=  5.00000e-09 to=  1.10002e-07
power_avg_uw        =  1.16189e+01


Total analysis time (seconds) = 0.975901

Total elapsed time (seconds) = 1.073 

Total DRAM available = 16384.000 MB.
DRAM currently available =   86.859 MB.
Maximum ngspice program size =   17.203 MB.
Current ngspice program size =   17.203 MB.

