
Note: No compatibility mode selected!


Circuit: INV seed characterization sample 6210019

Doing analysis at TEMP = 91.603400 and TNOM = 27.000000

Using SPARSE 1.3 as Direct Linear Solver

Initial Transient Solution
--------------------------

Node                                   Voltage
----                                   -------
vdd                                     1.7906
in                                           0
out                                     1.7906
vin#branch                                   0
vdd#branch                        -6.19492e-12

 Reference value :  5.33452e-08
No. of Data Rows : 60044

  Measurements for Transient Analysis

tphl                =  1.17607e-10 targ=  2.23171e-09 trig=  2.11410e-09
tplh                =  1.53696e-10 targ=  2.24960e-08 trig=  2.23423e-08
i_vdd_avg           =  -1.16313e-06 from=  5.00000e-09 to=  1.10001e-07
power_avg_uw        =  2.08270e+00


Total analysis time (seconds) = 0.381404

Total elapsed time (seconds) = 0.477 

Total DRAM available = 16384.000 MB.
DRAM currently available =   73.672 MB.
Maximum ngspice program size =   15.594 MB.
Current ngspice program size =   15.594 MB.

