
Note: No compatibility mode selected!


Circuit: INV seed characterization sample 4020017

Doing analysis at TEMP = -8.775480 and TNOM = 27.000000

Using SPARSE 1.3 as Direct Linear Solver

Initial Transient Solution
--------------------------

Node                                   Voltage
----                                   -------
vdd                                    1.62007
in                                           0
out                                    1.62007
vin#branch                                   0
vdd#branch                        -1.65975e-12

 Reference value :  7.15855e-08
No. of Data Rows : 60047

  Measurements for Transient Analysis

tphl                =  1.45927e-10 targ=  2.18055e-09 trig=  2.03463e-09
tplh                =  1.71638e-10 targ=  2.22755e-08 trig=  2.21039e-08
i_vdd_avg           =  -3.96463e-06 from=  5.00000e-09 to=  1.10002e-07
power_avg_uw        =  6.42298e+00


Total analysis time (seconds) = 0.29718

Total elapsed time (seconds) = 0.370 

Total DRAM available = 16384.000 MB.
DRAM currently available =  291.469 MB.
Maximum ngspice program size =   12.562 MB.
Current ngspice program size =   11.656 MB.

