
Note: No compatibility mode selected!


Circuit: NOR2 seed characterization sample 4020005

Doing analysis at TEMP = 49.470000 and TNOM = 27.000000

Using SPARSE 1.3 as Direct Linear Solver

Initial Transient Solution
--------------------------

Node                                   Voltage
----                                   -------
vdd                                    1.97384
in                                           0
out                                    1.97384
pmid                                   1.97384
vin#branch                                   0
vdd#branch                        -8.80817e-12

 Reference value :  3.95356e-08
 Reference value :  9.53113e-08
No. of Data Rows : 60044

  Measurements for Transient Analysis

tphl                =  1.38513e-10 targ=  2.37065e-09 trig=  2.23214e-09
tplh                =  3.42409e-10 targ=  2.30388e-08 trig=  2.26964e-08
i_vdd_avg           =  -2.65367e-06 from=  5.00000e-09 to=  1.10002e-07
power_avg_uw        =  5.23792e+00


Total analysis time (seconds) = 0.519093

Total elapsed time (seconds) = 0.596 

Total DRAM available = 16384.000 MB.
DRAM currently available =  287.422 MB.
Maximum ngspice program size =   12.562 MB.
Current ngspice program size =   11.625 MB.

