
Note: No compatibility mode selected!


Circuit: NAND2 seed characterization sample 4020036

Doing analysis at TEMP = 5.758440 and TNOM = 27.000000

Using SPARSE 1.3 as Direct Linear Solver

Initial Transient Solution
--------------------------

Node                                   Voltage
----                                   -------
vdd                                    1.92983
in                                           0
out                                    1.92983
nmid                                0.00729865
vin#branch                                   0
vdd#branch                        -1.96046e-12

 Reference value :  4.61946e-08
 Reference value :  1.06900e-07
No. of Data Rows : 60044

  Measurements for Transient Analysis

tphl                =  1.18288e-09 targ=  3.28367e-09 trig=  2.10080e-09
tplh                =  6.42939e-10 targ=  2.29453e-08 trig=  2.23024e-08
i_vdd_avg           =  -5.45849e-06 from=  5.00000e-09 to=  1.10000e-07
power_avg_uw        =  1.05340e+01


Total analysis time (seconds) = 0.47471

Total elapsed time (seconds) = 0.546 

Total DRAM available = 16384.000 MB.
DRAM currently available =  309.938 MB.
Maximum ngspice program size =   14.297 MB.
Current ngspice program size =   14.297 MB.

