
Note: No compatibility mode selected!


Circuit: XOR2 seed characterization sample 4020014

Doing analysis at TEMP = -0.253739 and TNOM = 27.000000

Using SPARSE 1.3 as Direct Linear Solver

Initial Transient Solution
--------------------------

Node                                   Voltage
----                                   -------
vdd                                    1.70878
in                                           0
b                                      1.70878
abar                                   1.70878
bbar                               1.31457e-09
out                                    1.70878
vb#branch                                    0
vin#branch                         1.79361e-12
vdd#branch                        -1.04451e-11

 Reference value :  2.17899e-08
 Reference value :  5.26879e-08
 Reference value :  8.76239e-08
No. of Data Rows : 60041

  Measurements for Transient Analysis

tphl                =  2.53240e-10 targ=  2.42469e-09 trig=  2.17145e-09
tplh                =  2.84357e-10 targ=  2.27987e-08 trig=  2.25143e-08
i_vdd_avg           =  -3.19692e-06 from=  5.00000e-09 to=  1.10001e-07
power_avg_uw        =  5.46283e+00


Total analysis time (seconds) = 0.867218

Total elapsed time (seconds) = 0.950 

Total DRAM available = 16384.000 MB.
DRAM currently available =  306.453 MB.
Maximum ngspice program size =   12.594 MB.
Current ngspice program size =   11.625 MB.

