
Note: No compatibility mode selected!


Circuit: INV seed characterization sample 4020042

Doing analysis at TEMP = 35.907200 and TNOM = 27.000000

Using SPARSE 1.3 as Direct Linear Solver

Initial Transient Solution
--------------------------

Node                                   Voltage
----                                   -------
vdd                                    1.85454
in                                           0
out                                    1.85454
vin#branch                                   0
vdd#branch                        -3.11172e-12

 Reference value :  6.15940e-08
No. of Data Rows : 60041

  Measurements for Transient Analysis

tphl                =  9.79613e-11 targ=  2.11044e-09 trig=  2.01248e-09
tplh                =  1.41569e-10 targ=  2.21790e-08 trig=  2.20374e-08
i_vdd_avg           =  -2.54258e-06 from=  5.00000e-09 to=  1.10001e-07
power_avg_uw        =  4.71531e+00


Total analysis time (seconds) = 0.333887

Total elapsed time (seconds) = 0.412 

Total DRAM available = 16384.000 MB.
DRAM currently available =  214.891 MB.
Maximum ngspice program size =   13.609 MB.
Current ngspice program size =   11.859 MB.

