
Note: No compatibility mode selected!


Circuit: NAND2 seed characterization sample 4020023

Doing analysis at TEMP = 13.561200 and TNOM = 27.000000

Using SPARSE 1.3 as Direct Linear Solver

Initial Transient Solution
--------------------------

Node                                   Voltage
----                                   -------
vdd                                    1.77594
in                                           0
out                                    1.77594
nmid                                 0.0296259
vin#branch                                   0
vdd#branch                        -1.90014e-12

 Reference value :  4.74741e-08
 Reference value :  1.09167e-07
No. of Data Rows : 60047

  Measurements for Transient Analysis

tphl                =  1.78188e-10 targ=  2.36475e-09 trig=  2.18656e-09
tplh                =  1.22853e-10 targ=  2.26825e-08 trig=  2.25597e-08
i_vdd_avg           =  -2.08307e-06 from=  5.00000e-09 to=  1.10001e-07
power_avg_uw        =  3.69941e+00


Total analysis time (seconds) = 0.46896

Total elapsed time (seconds) = 0.537 

Total DRAM available = 16384.000 MB.
DRAM currently available =  269.234 MB.
Maximum ngspice program size =   12.562 MB.
Current ngspice program size =   11.625 MB.

