
Note: No compatibility mode selected!


Circuit: XOR2 seed characterization sample 4020022

Doing analysis at TEMP = 21.009200 and TNOM = 27.000000

Using SPARSE 1.3 as Direct Linear Solver

Initial Transient Solution
--------------------------

Node                                   Voltage
----                                   -------
vdd                                    1.76687
in                                           0
b                                      1.76687
abar                                   1.76687
bbar                                8.8283e-10
out                                    1.76687
vb#branch                                    0
vin#branch                         2.67734e-12
vdd#branch                        -1.22657e-11

 Reference value :  2.63186e-08
 Reference value :  6.10178e-08
 Reference value :  9.52558e-08
No. of Data Rows : 60041

  Measurements for Transient Analysis

tphl                =  2.76531e-10 targ=  2.48293e-09 trig=  2.20640e-09
tplh                =  3.14873e-10 targ=  2.29341e-08 trig=  2.26192e-08
i_vdd_avg           =  -5.86010e-06 from=  5.00000e-09 to=  1.10001e-07
power_avg_uw        =  1.03540e+01


Total analysis time (seconds) = 0.833703

Total elapsed time (seconds) = 0.904 

Total DRAM available = 16384.000 MB.
DRAM currently available =  262.328 MB.
Maximum ngspice program size =   12.578 MB.
Current ngspice program size =   12.141 MB.

