
Note: No compatibility mode selected!


Circuit: NAND2 seed characterization sample 4020018

Doing analysis at TEMP = -11.071400 and TNOM = 27.000000

Using SPARSE 1.3 as Direct Linear Solver

Initial Transient Solution
--------------------------

Node                                   Voltage
----                                   -------
vdd                                    1.83742
in                                           0
out                                    1.83742
nmid                                0.00721525
vin#branch                                   0
vdd#branch                        -1.86817e-12

 Reference value :  4.54657e-08
 Reference value :  1.05764e-07
No. of Data Rows : 60041

  Measurements for Transient Analysis

tphl                =  1.56579e-10 targ=  2.31692e-09 trig=  2.16034e-09
tplh                =  9.72410e-11 targ=  2.25783e-08 trig=  2.24810e-08
i_vdd_avg           =  -1.71043e-06 from=  5.00000e-09 to=  1.10000e-07
power_avg_uw        =  3.14278e+00


Total analysis time (seconds) = 0.478915

Total elapsed time (seconds) = 0.552 

Total DRAM available = 16384.000 MB.
DRAM currently available =  291.469 MB.
Maximum ngspice program size =   12.562 MB.
Current ngspice program size =   12.281 MB.

