
Note: No compatibility mode selected!


Circuit: INV seed characterization sample 4020048

Doing analysis at TEMP = 40.837000 and TNOM = 27.000000

Using SPARSE 1.3 as Direct Linear Solver

Initial Transient Solution
--------------------------

Node                                   Voltage
----                                   -------
vdd                                    1.91929
in                                           0
out                                    1.91929
vin#branch                                   0
vdd#branch                        -5.29049e-12

 Reference value :  7.60308e-08
No. of Data Rows : 60044

  Measurements for Transient Analysis

tphl                =  1.15828e-10 targ=  2.27078e-09 trig=  2.15495e-09
tplh                =  1.30103e-10 targ=  2.25950e-08 trig=  2.24649e-08
i_vdd_avg           =  -2.61920e-06 from=  5.00000e-09 to=  1.10001e-07
power_avg_uw        =  5.02700e+00


Total analysis time (seconds) = 0.281649

Total elapsed time (seconds) = 0.351 

Total DRAM available = 16384.000 MB.
DRAM currently available =  227.766 MB.
Maximum ngspice program size =   12.562 MB.
Current ngspice program size =   11.875 MB.

