
Note: No compatibility mode selected!


Circuit: XOR2 seed characterization sample 4020020

Doing analysis at TEMP = 11.163300 and TNOM = 27.000000

Using SPARSE 1.3 as Direct Linear Solver

Initial Transient Solution
--------------------------

Node                                   Voltage
----                                   -------
vdd                                     1.7787
in                                           0
b                                       1.7787
abar                                    1.7787
bbar                               4.75625e-09
out                                     1.7787
vb#branch                                    0
vin#branch                         1.84024e-12
vdd#branch                        -1.08293e-11

 Reference value :  2.54787e-08
 Reference value :  5.95739e-08
 Reference value :  9.61039e-08
No. of Data Rows : 60041

  Measurements for Transient Analysis

tphl                =  2.72922e-10 targ=  2.31936e-09 trig=  2.04643e-09
tplh                =  2.73036e-10 targ=  2.24123e-08 trig=  2.21393e-08
i_vdd_avg           =  -1.55384e-06 from=  5.00000e-09 to=  1.10001e-07
power_avg_uw        =  2.76382e+00


Total analysis time (seconds) = 0.81508

Total elapsed time (seconds) = 0.890 

Total DRAM available = 16384.000 MB.
DRAM currently available =  292.797 MB.
Maximum ngspice program size =   12.578 MB.
Current ngspice program size =   12.391 MB.

