
Note: No compatibility mode selected!


Circuit: INV seed characterization sample 4020032

Doing analysis at TEMP = 70.228700 and TNOM = 27.000000

Using SPARSE 1.3 as Direct Linear Solver

Initial Transient Solution
--------------------------

Node                                   Voltage
----                                   -------
vdd                                    1.76641
in                                           0
out                                    1.76641
vin#branch                                   0
vdd#branch                        -5.03152e-12

 Reference value :  7.13493e-08
No. of Data Rows : 60044

  Measurements for Transient Analysis

tphl                =  5.77583e-10 targ=  2.70866e-09 trig=  2.13107e-09
tplh                =  7.21987e-10 targ=  2.31152e-08 trig=  2.23932e-08
i_vdd_avg           =  -3.96637e-06 from=  5.00000e-09 to=  1.10001e-07
power_avg_uw        =  7.00623e+00


Total analysis time (seconds) = 0.303966

Total elapsed time (seconds) = 0.375 

Total DRAM available = 16384.000 MB.
DRAM currently available =  307.078 MB.
Maximum ngspice program size =   12.562 MB.
Current ngspice program size =   11.594 MB.

