
Note: No compatibility mode selected!


Circuit: NOR2 seed characterization sample 4020015

Doing analysis at TEMP = 90.149900 and TNOM = 27.000000

Using SPARSE 1.3 as Direct Linear Solver

Initial Transient Solution
--------------------------

Node                                   Voltage
----                                   -------
vdd                                    1.91718
in                                           0
out                                    1.91718
pmid                                   1.91718
vin#branch                                   0
vdd#branch                         -2.8175e-11

 Reference value :  3.33100e-08
 Reference value :  8.68305e-08
No. of Data Rows : 60044

  Measurements for Transient Analysis

tphl                =  2.49859e-10 targ=  2.27762e-09 trig=  2.02776e-09
tplh                =  8.65076e-10 targ=  2.29484e-08 trig=  2.20833e-08
i_vdd_avg           =  -4.55281e-06 from=  5.00000e-09 to=  1.10000e-07
power_avg_uw        =  8.72855e+00


Total analysis time (seconds) = 0.528645

Total elapsed time (seconds) = 0.631 

Total DRAM available = 16384.000 MB.
DRAM currently available =  304.734 MB.
Maximum ngspice program size =   12.797 MB.
Current ngspice program size =   12.781 MB.

