
Note: No compatibility mode selected!


Circuit: INV seed characterization sample 4020039

Doing analysis at TEMP = -1.319570 and TNOM = 27.000000

Using SPARSE 1.3 as Direct Linear Solver

Initial Transient Solution
--------------------------

Node                                   Voltage
----                                   -------
vdd                                    1.95632
in                                           0
out                                    1.95632
vin#branch                                   0
vdd#branch                        -1.99727e-12

 Reference value :  6.18152e-08
No. of Data Rows : 60044

  Measurements for Transient Analysis

tphl                =  3.59064e-10 targ=  2.56416e-09 trig=  2.20509e-09
tplh                =  3.82411e-10 targ=  2.29977e-08 trig=  2.26153e-08
i_vdd_avg           =  -5.61220e-06 from=  5.00000e-09 to=  1.10001e-07
power_avg_uw        =  1.09793e+01


Total analysis time (seconds) = 0.33721

Total elapsed time (seconds) = 0.413 

Total DRAM available = 16384.000 MB.
DRAM currently available =  239.141 MB.
Maximum ngspice program size =   12.562 MB.
Current ngspice program size =   11.688 MB.

