
Note: No compatibility mode selected!


Circuit: NOR2 seed characterization sample 4020027

Doing analysis at TEMP = 98.587400 and TNOM = 27.000000

Using SPARSE 1.3 as Direct Linear Solver

Initial Transient Solution
--------------------------

Node                                   Voltage
----                                   -------
vdd                                    1.77697
in                                           0
out                                    1.77697
pmid                                   1.77697
vin#branch                                   0
vdd#branch                        -2.01732e-10

 Reference value :  4.12894e-08
 Reference value :  9.73412e-08
No. of Data Rows : 60044

  Measurements for Transient Analysis

tphl                =  1.15910e-10 targ=  2.35601e-09 trig=  2.24010e-09
tplh                =  3.46713e-10 targ=  2.30670e-08 trig=  2.27203e-08
i_vdd_avg           =  -3.19482e-06 from=  5.00000e-09 to=  1.10001e-07
power_avg_uw        =  5.67710e+00


Total analysis time (seconds) = 0.522673

Total elapsed time (seconds) = 0.600 

Total DRAM available = 16384.000 MB.
DRAM currently available =  297.312 MB.
Maximum ngspice program size =   12.562 MB.
Current ngspice program size =   11.875 MB.

