
Note: No compatibility mode selected!


Circuit: NAND2 seed characterization sample 4020026

Doing analysis at TEMP = 18.331100 and TNOM = 27.000000

Using SPARSE 1.3 as Direct Linear Solver

Initial Transient Solution
--------------------------

Node                                   Voltage
----                                   -------
vdd                                    1.69445
in                                           0
out                                    1.69445
nmid                                 0.0211071
vin#branch                                   0
vdd#branch                        -1.77291e-12

 Reference value :  4.23650e-08
 Reference value :  9.95170e-08
No. of Data Rows : 60044

  Measurements for Transient Analysis

tphl                =  5.93601e-10 targ=  2.73460e-09 trig=  2.14100e-09
tplh                =  2.62193e-10 targ=  2.26852e-08 trig=  2.24230e-08
i_vdd_avg           =  -4.43383e-06 from=  5.00000e-09 to=  1.10001e-07
power_avg_uw        =  7.51291e+00


Total analysis time (seconds) = 0.512125

Total elapsed time (seconds) = 0.590 

Total DRAM available = 16384.000 MB.
DRAM currently available =  297.312 MB.
Maximum ngspice program size =   12.562 MB.
Current ngspice program size =   11.719 MB.

