
Note: No compatibility mode selected!


Circuit: NOR2 seed characterization sample 4020013

Doing analysis at TEMP = -7.119630 and TNOM = 27.000000

Using SPARSE 1.3 as Direct Linear Solver

Initial Transient Solution
--------------------------

Node                                   Voltage
----                                   -------
vdd                                    1.69155
in                                           0
out                                    1.69155
pmid                                   1.69155
vin#branch                                   0
vdd#branch                        -3.46007e-12

 Reference value :  3.82038e-08
 Reference value :  9.15184e-08
No. of Data Rows : 60047

  Measurements for Transient Analysis

tphl                =  9.45266e-11 targ=  2.19724e-09 trig=  2.10271e-09
tplh                =  3.31391e-10 targ=  2.26395e-08 trig=  2.23081e-08
i_vdd_avg           =  -2.34873e-06 from=  5.00000e-09 to=  1.10002e-07
power_avg_uw        =  3.97299e+00


Total analysis time (seconds) = 0.529668

Total elapsed time (seconds) = 0.611 

Total DRAM available = 16384.000 MB.
DRAM currently available =  304.734 MB.
Maximum ngspice program size =   13.016 MB.
Current ngspice program size =   12.328 MB.

