
Note: No compatibility mode selected!


Circuit: XOR2 seed characterization sample 4020047

Doing analysis at TEMP = 86.728100 and TNOM = 27.000000

Using SPARSE 1.3 as Direct Linear Solver

Initial Transient Solution
--------------------------

Node                                   Voltage
----                                   -------
vdd                                    1.85676
in                                           0
b                                      1.85676
abar                                   1.85676
bbar                               1.28656e-08
out                                    1.85676
vb#branch                                    0
vin#branch                         1.13831e-11
vdd#branch                        -2.91894e-11

 Reference value :  2.68820e-08
 Reference value :  6.24645e-08
 Reference value :  9.98765e-08
No. of Data Rows : 60047

  Measurements for Transient Analysis

tphl                =  5.72302e-10 targ=  2.76104e-09 trig=  2.18874e-09
tplh                =  6.78268e-10 targ=  2.32445e-08 trig=  2.25662e-08
i_vdd_avg           =  -2.15339e-06 from=  5.00000e-09 to=  1.10002e-07
power_avg_uw        =  3.99833e+00


Total analysis time (seconds) = 0.802076

Total elapsed time (seconds) = 0.873 

Total DRAM available = 16384.000 MB.
DRAM currently available =  247.828 MB.
Maximum ngspice program size =   12.578 MB.
Current ngspice program size =   12.359 MB.

