
Note: No compatibility mode selected!


Circuit: NAND2 seed characterization sample 4400041

Doing analysis at TEMP = -2.636970 and TNOM = 27.000000

Using SPARSE 1.3 as Direct Linear Solver

Initial Transient Solution
--------------------------

Node                                   Voltage
----                                   -------
vdd                                    1.68985
in                                           0
out                                    1.68985
nmid                                 0.0270566
vin#branch                                   0
vdd#branch                        -1.79222e-12

 Reference value :  3.94708e-08
 Reference value :  9.35559e-08
No. of Data Rows : 60041

  Measurements for Transient Analysis

tphl                =  5.38195e-10 targ=  2.65064e-09 trig=  2.11245e-09
tplh                =  2.33133e-10 targ=  2.25705e-08 trig=  2.23374e-08
i_vdd_avg           =  -3.42409e-06 from=  5.00000e-09 to=  1.10001e-07
power_avg_uw        =  5.78620e+00


Total analysis time (seconds) = 0.538661

Total elapsed time (seconds) = 0.617 

Total DRAM available = 16384.000 MB.
DRAM currently available =  310.891 MB.
Maximum ngspice program size =   12.594 MB.
Current ngspice program size =   11.938 MB.

