
Note: No compatibility mode selected!


Circuit: XOR2 seed characterization sample 4400036

Doing analysis at TEMP = 65.917700 and TNOM = 27.000000

Using SPARSE 1.3 as Direct Linear Solver

Initial Transient Solution
--------------------------

Node                                   Voltage
----                                   -------
vdd                                    1.73671
in                                           0
b                                      1.73671
abar                                   1.73671
bbar                               1.00236e-08
out                                    1.73671
vb#branch                                    0
vin#branch                         1.34263e-10
vdd#branch                        -2.45073e-10

 Reference value :  2.26729e-08
 Reference value :  5.38309e-08
 Reference value :  9.06369e-08
No. of Data Rows : 60044

  Measurements for Transient Analysis

tphl                =  1.80304e-10 targ=  2.37127e-09 trig=  2.19097e-09
tplh                =  2.26860e-10 targ=  2.27998e-08 trig=  2.25729e-08
i_vdd_avg           =  -1.98006e-06 from=  5.00000e-09 to=  1.10001e-07
power_avg_uw        =  3.43879e+00


Total analysis time (seconds) = 0.845944

Total elapsed time (seconds) = 0.924 

Total DRAM available = 16384.000 MB.
DRAM currently available =  312.625 MB.
Maximum ngspice program size =   12.625 MB.
Current ngspice program size =   11.719 MB.

