
Note: No compatibility mode selected!


Circuit: XOR2 seed characterization sample 4400002

Doing analysis at TEMP = 5.437530 and TNOM = 27.000000

Using SPARSE 1.3 as Direct Linear Solver

Initial Transient Solution
--------------------------

Node                                   Voltage
----                                   -------
vdd                                    1.75156
in                                           0
b                                      1.75156
abar                                   1.75156
bbar                               1.06527e-09
out                                    1.75156
vb#branch                                    0
vin#branch                         4.95443e-12
vdd#branch                        -1.62301e-11

 Reference value :  2.74369e-08
 Reference value :  6.29069e-08
 Reference value :  1.00592e-07
No. of Data Rows : 60041

  Measurements for Transient Analysis

tphl                =  1.52202e-10 targ=  2.20167e-09 trig=  2.04947e-09
tplh                =  2.32260e-10 targ=  2.23807e-08 trig=  2.21484e-08
i_vdd_avg           =  -3.82968e-06 from=  5.00000e-09 to=  1.10001e-07
power_avg_uw        =  6.70791e+00


Total analysis time (seconds) = 0.788912

Total elapsed time (seconds) = 0.858 

Total DRAM available = 16384.000 MB.
DRAM currently available =  224.922 MB.
Maximum ngspice program size =   12.578 MB.
Current ngspice program size =   11.656 MB.

