
Note: No compatibility mode selected!


Circuit: XOR2 seed characterization sample 4400040

Doing analysis at TEMP = -2.250880 and TNOM = 27.000000

Using SPARSE 1.3 as Direct Linear Solver

Initial Transient Solution
--------------------------

Node                                   Voltage
----                                   -------
vdd                                    1.81528
in                                           0
b                                      1.81528
abar                                   1.81528
bbar                               8.92604e-10
out                                    1.81528
vb#branch                                    0
vin#branch                         3.95468e-12
vdd#branch                        -1.47334e-11

 Reference value :  2.67049e-08
 Reference value :  6.17589e-08
 Reference value :  9.63489e-08
No. of Data Rows : 60044

  Measurements for Transient Analysis

tphl                =  1.23273e-10 targ=  2.20124e-09 trig=  2.07796e-09
tplh                =  1.21222e-10 targ=  2.23551e-08 trig=  2.22339e-08
i_vdd_avg           =  -3.24898e-06 from=  5.00000e-09 to=  1.10001e-07
power_avg_uw        =  5.89780e+00


Total analysis time (seconds) = 0.841406

Total elapsed time (seconds) = 0.913 

Total DRAM available = 16384.000 MB.
DRAM currently available =  289.969 MB.
Maximum ngspice program size =   12.703 MB.
Current ngspice program size =   12.469 MB.

