
Note: No compatibility mode selected!


Circuit: XOR2 seed characterization sample 4400043

Doing analysis at TEMP = 71.555300 and TNOM = 27.000000

Using SPARSE 1.3 as Direct Linear Solver

Initial Transient Solution
--------------------------

Node                                   Voltage
----                                   -------
vdd                                    1.84066
in                                           0
b                                      1.84066
abar                                   1.84066
bbar                               2.15606e-08
out                                    1.84066
vb#branch                                    0
vin#branch                         8.74453e-11
vdd#branch                        -1.61753e-10

 Reference value :  2.27222e-08
 Reference value :  5.34527e-08
 Reference value :  8.49567e-08
No. of Data Rows : 60044

  Measurements for Transient Analysis

tphl                =  3.15536e-10 targ=  2.32337e-09 trig=  2.00783e-09
tplh                =  3.19607e-10 targ=  2.23431e-08 trig=  2.20235e-08
i_vdd_avg           =  -3.32358e-06 from=  5.00000e-09 to=  1.10000e-07
power_avg_uw        =  6.11758e+00


Total analysis time (seconds) = 0.890126

Total elapsed time (seconds) = 0.967 

Total DRAM available = 16384.000 MB.
DRAM currently available =  308.469 MB.
Maximum ngspice program size =   12.578 MB.
Current ngspice program size =   11.969 MB.

