
Note: No compatibility mode selected!


Circuit: NOR2 seed characterization sample 4400031

Doing analysis at TEMP = 42.126600 and TNOM = 27.000000

Using SPARSE 1.3 as Direct Linear Solver

Initial Transient Solution
--------------------------

Node                                   Voltage
----                                   -------
vdd                                    1.85461
in                                           0
out                                    1.85461
pmid                                   1.85461
vin#branch                                   0
vdd#branch                        -7.06304e-11

 Reference value :  3.87446e-08
 Reference value :  9.19898e-08
No. of Data Rows : 60041

  Measurements for Transient Analysis

tphl                =  1.15095e-10 targ=  2.34749e-09 trig=  2.23239e-09
tplh                =  3.10041e-10 targ=  2.30072e-08 trig=  2.26972e-08
i_vdd_avg           =  -3.88878e-06 from=  5.00000e-09 to=  1.10001e-07
power_avg_uw        =  7.21217e+00


Total analysis time (seconds) = 0.5299

Total elapsed time (seconds) = 0.609 

Total DRAM available = 16384.000 MB.
DRAM currently available =  307.172 MB.
Maximum ngspice program size =   12.578 MB.
Current ngspice program size =   11.641 MB.

