
Note: No compatibility mode selected!


Circuit: NAND2 seed characterization sample 4400004

Doing analysis at TEMP = 70.594500 and TNOM = 27.000000

Using SPARSE 1.3 as Direct Linear Solver

Initial Transient Solution
--------------------------

Node                                   Voltage
----                                   -------
vdd                                    1.89666
in                                           0
out                                    1.89666
nmid                                 0.0590622
vin#branch                                   0
vdd#branch                        -8.61667e-12

 Reference value :  4.76841e-08
 Reference value :  1.09585e-07
No. of Data Rows : 60047

  Measurements for Transient Analysis

tphl                =  2.28061e-10 targ=  2.29059e-09 trig=  2.06253e-09
tplh                =  1.09056e-10 targ=  2.22966e-08 trig=  2.21876e-08
i_vdd_avg           =  -1.12079e-06 from=  5.00000e-09 to=  1.10001e-07
power_avg_uw        =  2.12576e+00


Total analysis time (seconds) = 0.466267

Total elapsed time (seconds) = 0.536 

Total DRAM available = 16384.000 MB.
DRAM currently available =  202.266 MB.
Maximum ngspice program size =   12.562 MB.
Current ngspice program size =   11.688 MB.

