
Note: No compatibility mode selected!


Circuit: INV seed characterization sample 4400010

Doing analysis at TEMP = 8.500340 and TNOM = 27.000000

Using SPARSE 1.3 as Direct Linear Solver

Initial Transient Solution
--------------------------

Node                                   Voltage
----                                   -------
vdd                                     1.9112
in                                           0
out                                     1.9112
vin#branch                                   0
vdd#branch                        -4.41707e-12

 Reference value :  7.41338e-08
No. of Data Rows : 60044

  Measurements for Transient Analysis

tphl                =  1.24928e-10 targ=  2.33012e-09 trig=  2.20519e-09
tplh                =  1.38365e-10 targ=  2.27539e-08 trig=  2.26156e-08
i_vdd_avg           =  -2.04469e-06 from=  5.00000e-09 to=  1.10002e-07
power_avg_uw        =  3.90781e+00


Total analysis time (seconds) = 0.293171

Total elapsed time (seconds) = 0.361 

Total DRAM available = 16384.000 MB.
DRAM currently available =  216.156 MB.
Maximum ngspice program size =   12.562 MB.
Current ngspice program size =   11.688 MB.

