
Note: No compatibility mode selected!


Circuit: INV seed characterization sample 4400032

Doing analysis at TEMP = 28.411500 and TNOM = 27.000000

Using SPARSE 1.3 as Direct Linear Solver

Initial Transient Solution
--------------------------

Node                                   Voltage
----                                   -------
vdd                                    1.72548
in                                           0
out                                    1.72548
vin#branch                                   0
vdd#branch                        -2.26142e-11

 Reference value :  6.23799e-08
No. of Data Rows : 60041

  Measurements for Transient Analysis

tphl                =  1.34259e-10 targ=  2.34569e-09 trig=  2.21143e-09
tplh                =  1.84119e-10 targ=  2.28184e-08 trig=  2.26343e-08
i_vdd_avg           =  -3.31682e-06 from=  5.00000e-09 to=  1.10001e-07
power_avg_uw        =  5.72311e+00


Total analysis time (seconds) = 0.341314

Total elapsed time (seconds) = 0.417 

Total DRAM available = 16384.000 MB.
DRAM currently available =  282.078 MB.
Maximum ngspice program size =   12.562 MB.
Current ngspice program size =   12.000 MB.

