
Note: No compatibility mode selected!


Circuit: NAND2 seed characterization sample 4400033

Doing analysis at TEMP = 77.926600 and TNOM = 27.000000

Using SPARSE 1.3 as Direct Linear Solver

Initial Transient Solution
--------------------------

Node                                   Voltage
----                                   -------
vdd                                    1.69865
in                                           0
out                                    1.69865
nmid                                 0.0547542
vin#branch                                   0
vdd#branch                        -7.11907e-11

 Reference value :  3.99865e-08
 Reference value :  9.39788e-08
No. of Data Rows : 60044

  Measurements for Transient Analysis

tphl                =  1.97850e-10 targ=  2.29673e-09 trig=  2.09888e-09
tplh                =  9.88584e-11 targ=  2.23955e-08 trig=  2.22966e-08
i_vdd_avg           =  -3.99059e-06 from=  5.00000e-09 to=  1.10001e-07
power_avg_uw        =  6.77862e+00


Total analysis time (seconds) = 0.524267

Total elapsed time (seconds) = 0.600 

Total DRAM available = 16384.000 MB.
DRAM currently available =  304.688 MB.
Maximum ngspice program size =   12.562 MB.
Current ngspice program size =   11.625 MB.

