
Note: No compatibility mode selected!


Circuit: INV seed characterization sample 4420042

Doing analysis at TEMP = -19.790100 and TNOM = 27.000000

Using SPARSE 1.3 as Direct Linear Solver

Initial Transient Solution
--------------------------

Node                                   Voltage
----                                   -------
vdd                                     1.8646
in                                           0
out                                     1.8646
vin#branch                                   0
vdd#branch                        -1.88666e-12

 Reference value :  7.12919e-08
No. of Data Rows : 60047

  Measurements for Transient Analysis

tphl                =  1.91967e-10 targ=  2.39070e-09 trig=  2.19873e-09
tplh                =  2.48940e-10 targ=  2.28451e-08 trig=  2.25962e-08
i_vdd_avg           =  -4.59363e-06 from=  5.00000e-09 to=  1.10002e-07
power_avg_uw        =  8.56528e+00


Total analysis time (seconds) = 0.306989

Total elapsed time (seconds) = 0.379 

Total DRAM available = 16384.000 MB.
DRAM currently available =  215.500 MB.
Maximum ngspice program size =   12.562 MB.
Current ngspice program size =   11.844 MB.

