
Note: No compatibility mode selected!


Circuit: NOR2 seed characterization sample 4420029

Doing analysis at TEMP = 70.820000 and TNOM = 27.000000

Using SPARSE 1.3 as Direct Linear Solver

Initial Transient Solution
--------------------------

Node                                   Voltage
----                                   -------
vdd                                    1.78163
in                                           0
out                                    1.78163
pmid                                   1.78163
vin#branch                                   0
vdd#branch                        -5.12221e-11

 Reference value :  4.49711e-08
 Reference value :  1.04413e-07
No. of Data Rows : 60044

  Measurements for Transient Analysis

tphl                =  6.40112e-11 targ=  2.15808e-09 trig=  2.09407e-09
tplh                =  1.49816e-10 targ=  2.24320e-08 trig=  2.22822e-08
i_vdd_avg           =  -2.32016e-06 from=  5.00000e-09 to=  1.10001e-07
power_avg_uw        =  4.13367e+00


Total analysis time (seconds) = 0.479452

Total elapsed time (seconds) = 0.552 

Total DRAM available = 16384.000 MB.
DRAM currently available =  242.625 MB.
Maximum ngspice program size =   12.562 MB.
Current ngspice program size =   11.781 MB.

