
Note: No compatibility mode selected!


Circuit: NAND2 seed characterization sample 4420014

Doing analysis at TEMP = 79.764000 and TNOM = 27.000000

Using SPARSE 1.3 as Direct Linear Solver

Initial Transient Solution
--------------------------

Node                                   Voltage
----                                   -------
vdd                                     1.7568
in                                           0
out                                     1.7568
nmid                                 0.0513574
vin#branch                                   0
vdd#branch                        -5.73142e-12

 Reference value :  4.67961e-08
 Reference value :  1.07221e-07
No. of Data Rows : 60047

  Measurements for Transient Analysis

tphl                =  3.18792e-10 targ=  2.39633e-09 trig=  2.07753e-09
tplh                =  1.15756e-10 targ=  2.23484e-08 trig=  2.22326e-08
i_vdd_avg           =  -3.43218e-06 from=  5.00000e-09 to=  1.10001e-07
power_avg_uw        =  6.02965e+00


Total analysis time (seconds) = 0.475279

Total elapsed time (seconds) = 0.545 

Total DRAM available = 16384.000 MB.
DRAM currently available =  211.953 MB.
Maximum ngspice program size =   12.562 MB.
Current ngspice program size =   11.656 MB.

