
Note: No compatibility mode selected!


Circuit: NAND2 seed characterization sample 4420018

Doing analysis at TEMP = 18.153600 and TNOM = 27.000000

Using SPARSE 1.3 as Direct Linear Solver

Initial Transient Solution
--------------------------

Node                                   Voltage
----                                   -------
vdd                                     1.8037
in                                           0
out                                     1.8037
nmid                                  0.023719
vin#branch                                   0
vdd#branch                        -1.89198e-12

 Reference value :  4.71843e-08
 Reference value :  1.08846e-07
No. of Data Rows : 60047

  Measurements for Transient Analysis

tphl                =  2.14110e-10 targ=  2.42178e-09 trig=  2.20767e-09
tplh                =  1.33349e-10 targ=  2.27564e-08 trig=  2.26230e-08
i_vdd_avg           =  -1.17849e-06 from=  5.00000e-09 to=  1.10002e-07
power_avg_uw        =  2.12565e+00


Total analysis time (seconds) = 0.469679

Total elapsed time (seconds) = 0.539 

Total DRAM available = 16384.000 MB.
DRAM currently available =  229.109 MB.
Maximum ngspice program size =   12.562 MB.
Current ngspice program size =   11.734 MB.

