
Note: No compatibility mode selected!


Circuit: INV seed characterization sample 4420015

Doing analysis at TEMP = 70.712300 and TNOM = 27.000000

Using SPARSE 1.3 as Direct Linear Solver

Initial Transient Solution
--------------------------

Node                                   Voltage
----                                   -------
vdd                                     1.6756
in                                           0
out                                     1.6756
vin#branch                                   0
vdd#branch                        -1.49896e-11

 Reference value :  7.38259e-08
No. of Data Rows : 60044

  Measurements for Transient Analysis

tphl                =  1.10996e-10 targ=  2.21323e-09 trig=  2.10223e-09
tplh                =  1.66758e-10 targ=  2.24735e-08 trig=  2.23067e-08
i_vdd_avg           =  -1.50264e-06 from=  5.00000e-09 to=  1.10002e-07
power_avg_uw        =  2.51783e+00


Total analysis time (seconds) = 0.294438

Total elapsed time (seconds) = 0.364 

Total DRAM available = 16384.000 MB.
DRAM currently available =  233.141 MB.
Maximum ngspice program size =   12.562 MB.
Current ngspice program size =   11.594 MB.

