
Note: No compatibility mode selected!


Circuit: XOR2 seed characterization sample 4420025

Doing analysis at TEMP = 82.117400 and TNOM = 27.000000

Using SPARSE 1.3 as Direct Linear Solver

Initial Transient Solution
--------------------------

Node                                   Voltage
----                                   -------
vdd                                    1.72067
in                                           0
b                                      1.72067
abar                                   1.72067
bbar                               4.01438e-09
out                                    1.72067
vb#branch                                    0
vin#branch                         4.29389e-11
vdd#branch                        -8.37109e-11

 Reference value :  2.25841e-08
 Reference value :  5.36706e-08
 Reference value :  8.51786e-08
No. of Data Rows : 60044

  Measurements for Transient Analysis

tphl                =  2.00916e-10 targ=  2.28069e-09 trig=  2.07978e-09
tplh                =  2.02352e-10 targ=  2.24417e-08 trig=  2.22393e-08
i_vdd_avg           =  -3.08733e-06 from=  5.00000e-09 to=  1.10000e-07
power_avg_uw        =  5.31227e+00


Total analysis time (seconds) = 0.888266

Total elapsed time (seconds) = 0.967 

Total DRAM available = 16384.000 MB.
DRAM currently available =  221.359 MB.
Maximum ngspice program size =   12.609 MB.
Current ngspice program size =   11.672 MB.

