
Note: No compatibility mode selected!


Circuit: INV seed characterization sample 4420022

Doing analysis at TEMP = 54.760100 and TNOM = 27.000000

Using SPARSE 1.3 as Direct Linear Solver

Initial Transient Solution
--------------------------

Node                                   Voltage
----                                   -------
vdd                                    1.79889
in                                           0
out                                    1.79889
vin#branch                                   0
vdd#branch                        -1.01567e-11

 Reference value :  6.42725e-08
No. of Data Rows : 60044

  Measurements for Transient Analysis

tphl                =  1.95062e-10 targ=  2.38093e-09 trig=  2.18587e-09
tplh                =  2.81851e-10 targ=  2.28394e-08 trig=  2.25576e-08
i_vdd_avg           =  -4.92110e-06 from=  5.00000e-09 to=  1.10000e-07
power_avg_uw        =  8.85251e+00


Total analysis time (seconds) = 0.322459

Total elapsed time (seconds) = 0.399 

Total DRAM available = 16384.000 MB.
DRAM currently available =  244.047 MB.
Maximum ngspice program size =   12.562 MB.
Current ngspice program size =   11.594 MB.

