
Note: No compatibility mode selected!


Circuit: INV seed characterization sample 4420030

Doing analysis at TEMP = 39.393900 and TNOM = 27.000000

Using SPARSE 1.3 as Direct Linear Solver

Initial Transient Solution
--------------------------

Node                                   Voltage
----                                   -------
vdd                                    1.71062
in                                           0
out                                    1.71062
vin#branch                                   0
vdd#branch                        -3.39218e-12

 Reference value :  7.25740e-08
No. of Data Rows : 60041

  Measurements for Transient Analysis

tphl                =  1.37994e-10 targ=  2.16425e-09 trig=  2.02625e-09
tplh                =  1.40573e-10 targ=  2.22193e-08 trig=  2.20788e-08
i_vdd_avg           =  -3.28592e-06 from=  5.00000e-09 to=  1.10000e-07
power_avg_uw        =  5.62096e+00


Total analysis time (seconds) = 0.294685

Total elapsed time (seconds) = 0.367 

Total DRAM available = 16384.000 MB.
DRAM currently available =  242.625 MB.
Maximum ngspice program size =   12.609 MB.
Current ngspice program size =   11.766 MB.

