
Note: No compatibility mode selected!


Circuit: XOR2 seed characterization sample 4420031

Doing analysis at TEMP = 54.144500 and TNOM = 27.000000

Using SPARSE 1.3 as Direct Linear Solver

Initial Transient Solution
--------------------------

Node                                   Voltage
----                                   -------
vdd                                    1.75257
in                                           0
b                                      1.75257
abar                                   1.75257
bbar                               1.68129e-09
out                                    1.75257
vb#branch                                    0
vin#branch                         8.84032e-12
vdd#branch                        -2.31516e-11

 Reference value :  2.48721e-08
 Reference value :  5.91525e-08
 Reference value :  9.75005e-08
No. of Data Rows : 60044

  Measurements for Transient Analysis

tphl                =  3.36255e-10 targ=  2.48902e-09 trig=  2.15276e-09
tplh                =  3.69412e-10 targ=  2.28277e-08 trig=  2.24583e-08
i_vdd_avg           =  -5.62659e-06 from=  5.00000e-09 to=  1.10000e-07
power_avg_uw        =  9.86099e+00


Total analysis time (seconds) = 0.795539

Total elapsed time (seconds) = 0.875 

Total DRAM available = 16384.000 MB.
DRAM currently available =  214.422 MB.
Maximum ngspice program size =   12.609 MB.
Current ngspice program size =   12.062 MB.

