
Note: No compatibility mode selected!


Circuit: XOR2 seed characterization sample 4420006

Doing analysis at TEMP = 94.581400 and TNOM = 27.000000

Using SPARSE 1.3 as Direct Linear Solver

Initial Transient Solution
--------------------------

Node                                   Voltage
----                                   -------
vdd                                    1.86806
in                                           0
b                                      1.86806
abar                                   1.86806
bbar                               5.14408e-09
out                                    1.86806
vb#branch                                    0
vin#branch                         1.03365e-10
vdd#branch                        -1.92185e-10

 Reference value :  2.71736e-08
 Reference value :  6.22643e-08
 Reference value :  9.80123e-08
No. of Data Rows : 60047

  Measurements for Transient Analysis

tphl                =  3.30485e-10 targ=  2.47314e-09 trig=  2.14265e-09
tplh                =  4.50249e-10 targ=  2.28782e-08 trig=  2.24280e-08
i_vdd_avg           =  -7.23522e-06 from=  5.00000e-09 to=  1.10002e-07
power_avg_uw        =  1.35158e+01


Total analysis time (seconds) = 0.814581

Total elapsed time (seconds) = 0.884 

Total DRAM available = 16384.000 MB.
DRAM currently available =  239.828 MB.
Maximum ngspice program size =   12.578 MB.
Current ngspice program size =   11.844 MB.

