
Note: No compatibility mode selected!


Circuit: INV seed characterization sample 4420032

Doing analysis at TEMP = 27.026500 and TNOM = 27.000000

Using SPARSE 1.3 as Direct Linear Solver

Initial Transient Solution
--------------------------

Node                                   Voltage
----                                   -------
vdd                                    1.81529
in                                           0
out                                    1.81529
vin#branch                                   0
vdd#branch                        -2.64869e-12

 Reference value :  7.11465e-08
No. of Data Rows : 60041

  Measurements for Transient Analysis

tphl                =  2.52471e-10 targ=  2.49386e-09 trig=  2.24139e-09
tplh                =  3.14389e-10 targ=  2.30385e-08 trig=  2.27242e-08
i_vdd_avg           =  -5.09998e-06 from=  5.00000e-09 to=  1.10001e-07
power_avg_uw        =  9.25795e+00


Total analysis time (seconds) = 0.299484

Total elapsed time (seconds) = 0.372 

Total DRAM available = 16384.000 MB.
DRAM currently available =  242.625 MB.
Maximum ngspice program size =   13.047 MB.
Current ngspice program size =   13.047 MB.

