
Note: No compatibility mode selected!


Circuit: XOR2 seed characterization sample 4420011

Doing analysis at TEMP = 97.995300 and TNOM = 27.000000

Using SPARSE 1.3 as Direct Linear Solver

Initial Transient Solution
--------------------------

Node                                   Voltage
----                                   -------
vdd                                    1.92528
in                                           0
b                                      1.92528
abar                                   1.92528
bbar                               5.89381e-09
out                                    1.92528
vb#branch                                    0
vin#branch                         1.69731e-10
vdd#branch                        -3.11383e-10

 Reference value :  2.57603e-08
 Reference value :  6.02746e-08
 Reference value :  9.69346e-08
No. of Data Rows : 60044

  Measurements for Transient Analysis

tphl                =  1.49180e-10 targ=  2.17800e-09 trig=  2.02882e-09
tplh                =  1.92797e-10 targ=  2.22793e-08 trig=  2.20865e-08
i_vdd_avg           =  -4.83926e-06 from=  5.00000e-09 to=  1.10000e-07
power_avg_uw        =  9.31693e+00


Total analysis time (seconds) = 0.81257

Total elapsed time (seconds) = 0.887 

Total DRAM available = 16384.000 MB.
DRAM currently available =  227.438 MB.
Maximum ngspice program size =   12.766 MB.
Current ngspice program size =   12.766 MB.

