
Note: No compatibility mode selected!


Circuit: NOR2 seed characterization sample 4420003

Doing analysis at TEMP = 37.179100 and TNOM = 27.000000

Using SPARSE 1.3 as Direct Linear Solver

Initial Transient Solution
--------------------------

Node                                   Voltage
----                                   -------
vdd                                    1.74164
in                                           0
out                                    1.74164
pmid                                   1.74164
vin#branch                                   0
vdd#branch                        -7.32571e-12

 Reference value :  4.74737e-08
 Reference value :  1.08880e-07
No. of Data Rows : 60041

  Measurements for Transient Analysis

tphl                =  1.02598e-10 targ=  2.32794e-09 trig=  2.22534e-09
tplh                =  2.87597e-10 targ=  2.29636e-08 trig=  2.26760e-08
i_vdd_avg           =  -2.28718e-06 from=  5.00000e-09 to=  1.10000e-07
power_avg_uw        =  3.98344e+00


Total analysis time (seconds) = 0.46953

Total elapsed time (seconds) = 0.539 

Total DRAM available = 16384.000 MB.
DRAM currently available =  236.109 MB.
Maximum ngspice program size =   12.562 MB.
Current ngspice program size =   11.875 MB.

