
Note: No compatibility mode selected!


Circuit: NOR2 seed characterization sample 4420048

Doing analysis at TEMP = 52.493400 and TNOM = 27.000000

Using SPARSE 1.3 as Direct Linear Solver

Initial Transient Solution
--------------------------

Node                                   Voltage
----                                   -------
vdd                                    1.92109
in                                           0
out                                    1.92109
pmid                                   1.92109
vin#branch                                   0
vdd#branch                         -1.4675e-11

 Reference value :  3.82535e-08
 Reference value :  9.13982e-08
No. of Data Rows : 60047

  Measurements for Transient Analysis

tphl                =  9.52863e-11 targ=  2.33490e-09 trig=  2.23962e-09
tplh                =  3.46688e-10 targ=  2.30655e-08 trig=  2.27188e-08
i_vdd_avg           =  -2.46661e-06 from=  5.00000e-09 to=  1.10001e-07
power_avg_uw        =  4.73859e+00


Total analysis time (seconds) = 0.534248

Total elapsed time (seconds) = 0.614 

Total DRAM available = 16384.000 MB.
DRAM currently available =  154.672 MB.
Maximum ngspice program size =   12.562 MB.
Current ngspice program size =   11.969 MB.

