
Note: No compatibility mode selected!


Circuit: NAND2 seed characterization sample 4420007

Doing analysis at TEMP = 26.313000 and TNOM = 27.000000

Using SPARSE 1.3 as Direct Linear Solver

Initial Transient Solution
--------------------------

Node                                   Voltage
----                                   -------
vdd                                    1.77446
in                                           0
out                                    1.77446
nmid                                 0.0256834
vin#branch                                   0
vdd#branch                        -1.87291e-12

 Reference value :  4.78557e-08
 Reference value :  1.09594e-07
No. of Data Rows : 60041

  Measurements for Transient Analysis

tphl                =  3.03093e-10 targ=  2.43643e-09 trig=  2.13334e-09
tplh                =  1.68433e-10 targ=  2.25684e-08 trig=  2.24000e-08
i_vdd_avg           =  -1.70143e-06 from=  5.00000e-09 to=  1.10000e-07
power_avg_uw        =  3.01911e+00


Total analysis time (seconds) = 0.467276

Total elapsed time (seconds) = 0.536 

Total DRAM available = 16384.000 MB.
DRAM currently available =  219.625 MB.
Maximum ngspice program size =   12.562 MB.
Current ngspice program size =   11.625 MB.

