
Note: No compatibility mode selected!


Circuit: NOR2 seed characterization sample 4420002

Doing analysis at TEMP = 57.627400 and TNOM = 27.000000

Using SPARSE 1.3 as Direct Linear Solver

Initial Transient Solution
--------------------------

Node                                   Voltage
----                                   -------
vdd                                    1.76233
in                                           0
out                                    1.76233
pmid                                   1.76233
vin#branch                                   0
vdd#branch                        -1.25321e-11

 Reference value :  4.74504e-08
 Reference value :  1.08994e-07
No. of Data Rows : 60047

  Measurements for Transient Analysis

tphl                =  1.49489e-10 targ=  2.27021e-09 trig=  2.12072e-09
tplh                =  7.54385e-10 targ=  2.31165e-08 trig=  2.23622e-08
i_vdd_avg           =  -4.03309e-06 from=  5.00000e-09 to=  1.10002e-07
power_avg_uw        =  7.10763e+00


Total analysis time (seconds) = 0.468996

Total elapsed time (seconds) = 0.539 

Total DRAM available = 16384.000 MB.
DRAM currently available =  225.016 MB.
Maximum ngspice program size =   12.562 MB.
Current ngspice program size =   11.594 MB.

