
Note: No compatibility mode selected!


Circuit: NAND2 seed characterization sample 4420008

Doing analysis at TEMP = 32.229000 and TNOM = 27.000000

Using SPARSE 1.3 as Direct Linear Solver

Initial Transient Solution
--------------------------

Node                                   Voltage
----                                   -------
vdd                                    1.93883
in                                           0
out                                    1.93883
nmid                                 0.0357725
vin#branch                                   0
vdd#branch                        -2.10096e-12

 Reference value :  4.78538e-08
 Reference value :  1.09553e-07
No. of Data Rows : 60041

  Measurements for Transient Analysis

tphl                =  3.03233e-10 targ=  2.47862e-09 trig=  2.17539e-09
tplh                =  1.53949e-10 targ=  2.26801e-08 trig=  2.25262e-08
i_vdd_avg           =  -2.40571e-06 from=  5.00000e-09 to=  1.10001e-07
power_avg_uw        =  4.66426e+00


Total analysis time (seconds) = 0.467599

Total elapsed time (seconds) = 0.536 

Total DRAM available = 16384.000 MB.
DRAM currently available =  226.453 MB.
Maximum ngspice program size =   12.562 MB.
Current ngspice program size =   11.875 MB.

