
Note: No compatibility mode selected!


Circuit: NAND2 seed characterization sample 4420028

Doing analysis at TEMP = 43.252000 and TNOM = 27.000000

Using SPARSE 1.3 as Direct Linear Solver

Initial Transient Solution
--------------------------

Node                                   Voltage
----                                   -------
vdd                                    1.96117
in                                           0
out                                    1.96117
nmid                                 0.0500545
vin#branch                                   0
vdd#branch                        -2.69485e-12

 Reference value :  4.06334e-08
 Reference value :  9.47932e-08
No. of Data Rows : 60044

  Measurements for Transient Analysis

tphl                =  1.80420e-10 targ=  2.30152e-09 trig=  2.12110e-09
tplh                =  9.70183e-11 targ=  2.24603e-08 trig=  2.23633e-08
i_vdd_avg           =  -3.58276e-06 from=  5.00000e-09 to=  1.10001e-07
power_avg_uw        =  7.02641e+00


Total analysis time (seconds) = 0.536588

Total elapsed time (seconds) = 0.612 

Total DRAM available = 16384.000 MB.
DRAM currently available =  232.375 MB.
Maximum ngspice program size =   12.688 MB.
Current ngspice program size =   12.391 MB.

