
Note: No compatibility mode selected!


Circuit: GF180MCU library cell oai21_4 A1_to_ZN__A2=0,B=1

Doing analysis at TEMP = 71.344225 and TNOM = 27.000000

Using SPARSE 1.3 as Direct Linear Solver

Initial Transient Solution
--------------------------

Node                                   Voltage
----                                   -------
vdd                                    1.93221
a1                                           0
a2                                           0
b                                      1.93221
zn                                     1.93221
xu1.net_0                           1.1538e-08
xu1.net_1_0                            1.93221
xu1.net_1_1                            1.93221
xu1.net_1_2                            1.93221
xu1.net_1_3                            1.93221
vfix_b#branch                                0
vfix_a2#branch                               0
vin#branch                                   0
vdd#branch                        -2.34077e-11

 Reference value :  2.31514e-08
 Reference value :  5.12788e-08
 Reference value :  8.02738e-08
 Reference value :  1.09545e-07
 Reference value :  1.38845e-07
 Reference value :  1.67660e-07
 Reference value :  1.95699e-07
 Reference value :  2.25234e-07
 Reference value :  2.52569e-07
 Reference value :  2.80545e-07
 Reference value :  3.08485e-07
 Reference value :  3.37685e-07
No. of Data Rows : 68030

  Measurements for Transient Analysis

tphl                =  6.44087e-10 targ=  2.47897e-08 trig=  2.41456e-08
tplh                =  1.77277e-09 targ=  9.62097e-08 trig=  9.44369e-08
i_vdd_avg           =  -1.14633e-06 from=  1.00000e-08 to=  3.30000e-07
power_avg_uw        =  2.21494e+00


Total analysis time (seconds) = 3.42431

Total elapsed time (seconds) = 3.488 

Total DRAM available = 16384.000 MB.
DRAM currently available =  159.531 MB.
Maximum ngspice program size =   12.594 MB.
Current ngspice program size =   12.391 MB.

