
Note: No compatibility mode selected!


Circuit: GF180MCU library cell aoi21_4 A1_to_ZN__A2=1,B=0

Doing analysis at TEMP = 42.385696 and TNOM = 27.000000

Using SPARSE 1.3 as Direct Linear Solver

Initial Transient Solution
--------------------------

Node                                   Voltage
----                                   -------
vdd                                    1.69148
a1                                           0
a2                                     1.69148
b                                            0
xu1.net_0_0                        7.93415e-10
zn                                     1.69148
xu1.net_0_1                        7.93415e-10
xu1.net_0_2                        7.93415e-10
xu1.net_0_3                        7.93415e-10
xu1.net_1                              1.69148
vfix_b#branch                                0
vfix_a2#branch                               0
vin#branch                                   0
vdd#branch                        -1.47239e-11

 Reference value :  1.67164e-08
 Reference value :  4.57732e-08
 Reference value :  7.43982e-08
 Reference value :  1.03573e-07
 Reference value :  1.32699e-07
 Reference value :  1.62759e-07
 Reference value :  1.92058e-07
 Reference value :  2.19223e-07
 Reference value :  2.47398e-07
 Reference value :  2.76444e-07
 Reference value :  3.07224e-07
 Reference value :  3.38074e-07
No. of Data Rows : 68032

  Measurements for Transient Analysis

tphl                =  2.50387e-09 targ=  2.95992e-08 trig=  2.70954e-08
tplh                =  4.97118e-09 targ=  1.08257e-07 trig=  1.03286e-07
i_vdd_avg           =  -1.67494e-06 from=  1.00000e-08 to=  3.30004e-07
power_avg_uw        =  2.83313e+00


Total analysis time (seconds) = 3.17084

Total elapsed time (seconds) = 3.262 

Total DRAM available = 16384.000 MB.
DRAM currently available =  208.250 MB.
Maximum ngspice program size =   17.219 MB.
Current ngspice program size =   17.219 MB.

