
Note: No compatibility mode selected!


Circuit: GF180MCU library cell nand2_4 A1_to_ZN__A2=1

Doing analysis at TEMP = 19.471110 and TNOM = 27.000000

Using SPARSE 1.3 as Direct Linear Solver

Initial Transient Solution
--------------------------

Node                                   Voltage
----                                   -------
vdd                                    1.71214
a1                                           0
a2                                     1.71214
xu1.net_0_0                        1.17968e-10
zn                                     1.71214
xu1.net_0_1                        1.17968e-10
xu1.net_0_2                        1.17968e-10
xu1.net_0_3                        1.17968e-10
vfix_a2#branch                               0
vin#branch                                   0
vdd#branch                        -6.96785e-12

 Reference value :  2.61793e-08
 Reference value :  6.54043e-08
 Reference value :  1.07526e-07
 Reference value :  1.52791e-07
 Reference value :  1.94549e-07
 Reference value :  2.35099e-07
 Reference value :  2.75316e-07
 Reference value :  3.19381e-07
No. of Data Rows : 68030

  Measurements for Transient Analysis

tphl                =  1.38109e-09 targ=  2.61345e-08 trig=  2.47534e-08
tplh                =  1.98387e-09 targ=  9.82440e-08 trig=  9.62601e-08
i_vdd_avg           =  -1.61654e-06 from=  1.00000e-08 to=  3.30001e-07
power_avg_uw        =  2.76775e+00


Total analysis time (seconds) = 2.2962

Total elapsed time (seconds) = 2.393 

Total DRAM available = 16384.000 MB.
DRAM currently available =   77.344 MB.
Maximum ngspice program size =   17.156 MB.
Current ngspice program size =   17.156 MB.

