
Note: No compatibility mode selected!


Circuit: GF180MCU library cell aoi21_1 A1_to_ZN__A2=1,B=0

Doing analysis at TEMP = 78.724187 and TNOM = 27.000000

Using SPARSE 1.3 as Direct Linear Solver

Initial Transient Solution
--------------------------

Node                                   Voltage
----                                   -------
vdd                                    1.62108
a1                                           0
a2                                     1.62108
b                                            0
xu1.net_0                          1.00244e-08
zn                                     1.62108
xu1.net_1                              1.62108
vfix_b#branch                                0
vfix_a2#branch                               0
vin#branch                                   0
vdd#branch                        -6.17747e-12

 Reference value :  7.22650e-08
 Reference value :  1.68808e-07
 Reference value :  2.71338e-07
No. of Data Rows : 68034

  Measurements for Transient Analysis

tphl                =  6.87295e-09 targ=  3.47067e-08 trig=  2.78338e-08
tplh                =  1.67669e-08 targ=  1.22268e-07 trig=  1.05501e-07
i_vdd_avg           =  -1.60394e-06 from=  1.00000e-08 to=  3.30003e-07
power_avg_uw        =  2.60011e+00


Total analysis time (seconds) = 1.03454

Total elapsed time (seconds) = 1.104 

Total DRAM available = 16384.000 MB.
DRAM currently available =  215.547 MB.
Maximum ngspice program size =   15.516 MB.
Current ngspice program size =   15.516 MB.

