
Note: No compatibility mode selected!


Circuit: GF180MCU library cell aoi21_1 A1_to_ZN__A2=1,B=0

Doing analysis at TEMP = 7.703574 and TNOM = 27.000000

Using SPARSE 1.3 as Direct Linear Solver

Initial Transient Solution
--------------------------

Node                                   Voltage
----                                   -------
vdd                                    1.90721
a1                                           0
a2                                     1.90721
b                                            0
xu1.net_0                          3.74985e-11
zn                                     1.90721
xu1.net_1                              1.90721
vfix_b#branch                                0
vfix_a2#branch                               0
vin#branch                                   0
vdd#branch                        -3.85222e-12

 Reference value :  6.21855e-08
 Reference value :  1.56934e-07
 Reference value :  2.54696e-07
No. of Data Rows : 68034

  Measurements for Transient Analysis

tphl                =  1.99720e-09 targ=  2.63162e-08 trig=  2.43190e-08
tplh                =  5.17369e-09 targ=  1.00131e-07 trig=  9.49571e-08
i_vdd_avg           =  -1.00489e-06 from=  1.00000e-08 to=  3.30004e-07
power_avg_uw        =  1.91653e+00


Total analysis time (seconds) = 1.08996

Total elapsed time (seconds) = 1.167 

Total DRAM available = 16384.000 MB.
DRAM currently available =  170.812 MB.
Maximum ngspice program size =   17.125 MB.
Current ngspice program size =   17.125 MB.

