
Note: No compatibility mode selected!


Circuit: GF180MCU library cell nor2_1 A1_to_ZN__A2=0

Doing analysis at TEMP = -12.474226 and TNOM = 27.000000

Using SPARSE 1.3 as Direct Linear Solver

Initial Transient Solution
--------------------------

Node                                   Voltage
----                                   -------
vdd                                    1.89256
a1                                           0
a2                                           0
zn                                     1.89256
xu1.net_0                              1.89256
vfix_a2#branch                               0
vin#branch                                   0
vdd#branch                        -3.80742e-12

 Reference value :  8.96790e-08
 Reference value :  2.31154e-07
No. of Data Rows : 68030

  Measurements for Transient Analysis

tphl                =  1.99617e-09 targ=  3.17919e-08 trig=  2.97957e-08
tplh                =  4.58314e-09 targ=  1.15970e-07 trig=  1.11387e-07
i_vdd_avg           =  -3.32879e-07 from=  1.00000e-08 to=  3.30000e-07
power_avg_uw        =  6.29993e-01


Total analysis time (seconds) = 0.747216

Total elapsed time (seconds) = 0.828 

Total DRAM available = 16384.000 MB.
DRAM currently available =  159.531 MB.
Maximum ngspice program size =   17.531 MB.
Current ngspice program size =   17.531 MB.

