
Note: No compatibility mode selected!


Circuit: GF180MCU library cell nand2_1 A1_to_ZN__A2=1

Doing analysis at TEMP = -20.626361 and TNOM = 27.000000

Using SPARSE 1.3 as Direct Linear Solver

Initial Transient Solution
--------------------------

Node                                   Voltage
----                                   -------
vdd                                    1.62266
a1                                           0
a2                                     1.62266
xu1.net_0                           1.9464e-12
zn                                     1.62266
vfix_a2#branch                               0
vin#branch                                   0
vdd#branch                        -1.63301e-12

 Reference value :  8.92553e-08
 Reference value :  2.24215e-07
No. of Data Rows : 68034

  Measurements for Transient Analysis

tphl                =  5.03034e-09 targ=  3.22192e-08 trig=  2.71889e-08
tplh                =  7.47387e-09 targ=  1.11041e-07 trig=  1.03567e-07
i_vdd_avg           =  -1.24113e-06 from=  1.00000e-08 to=  3.30003e-07
power_avg_uw        =  2.01394e+00


Total analysis time (seconds) = 0.694743

Total elapsed time (seconds) = 0.782 

Total DRAM available = 16384.000 MB.
DRAM currently available =  161.922 MB.
Maximum ngspice program size =   17.266 MB.
Current ngspice program size =   17.266 MB.

