
Note: No compatibility mode selected!


Circuit: GF180MCU library cell inv_1 I_to_ZN

Doing analysis at TEMP = 112.671890 and TNOM = 27.000000

Using SPARSE 1.3 as Direct Linear Solver

Initial Transient Solution
--------------------------

Node                                   Voltage
----                                   -------
vdd                                    1.84103
i                                            0
zn                                     1.84103
vin#branch                                   0
vdd#branch                        -1.12532e-11

 Reference value :  1.42685e-07
No. of Data Rows : 68032

  Measurements for Transient Analysis

tphl                =  9.98639e-10 targ=  2.76581e-08 trig=  2.66595e-08
tplh                =  2.03396e-09 targ=  1.04012e-07 trig=  1.01978e-07
i_vdd_avg           =  -2.34254e-07 from=  1.00000e-08 to=  3.30000e-07
power_avg_uw        =  4.31269e-01


Total analysis time (seconds) = 0.485559

Total elapsed time (seconds) = 0.641 

Total DRAM available = 16384.000 MB.
DRAM currently available =  215.547 MB.
Maximum ngspice program size =   20.219 MB.
Current ngspice program size =   20.219 MB.

