
Note: No compatibility mode selected!


Circuit: GF180MCU library cell inv_1 I_to_ZN

Doing analysis at TEMP = -34.586480 and TNOM = 27.000000

Using SPARSE 1.3 as Direct Linear Solver

Initial Transient Solution
--------------------------

Node                                   Voltage
----                                   -------
vdd                                    1.72334
i                                            0
zn                                     1.72334
vin#branch                                   0
vdd#branch                        -1.73341e-12

 Reference value :  1.68981e-07
No. of Data Rows : 68030

  Measurements for Transient Analysis

tphl                =  5.18518e-09 targ=  3.39735e-08 trig=  2.87883e-08
tplh                =  9.62812e-09 targ=  1.17993e-07 trig=  1.08365e-07
i_vdd_avg           =  -2.08127e-06 from=  1.00000e-08 to=  3.30001e-07
power_avg_uw        =  3.58674e+00


Total analysis time (seconds) = 0.363095

Total elapsed time (seconds) = 0.429 

Total DRAM available = 16384.000 MB.
DRAM currently available =  289.203 MB.
Maximum ngspice program size =   18.156 MB.
Current ngspice program size =   18.156 MB.

