
Note: No compatibility mode selected!


Circuit: GF180MCU library cell oai21_1 A1_to_ZN__A2=0,B=1

Doing analysis at TEMP = -35.613515 and TNOM = 27.000000

Using SPARSE 1.3 as Direct Linear Solver

Initial Transient Solution
--------------------------

Node                                   Voltage
----                                   -------
vdd                                    1.88526
a1                                           0
a2                                           0
b                                      1.88526
zn                                     1.88526
xu1.net_0                          5.36675e-13
xu1.net_1                              1.88526
vfix_b#branch                                0
vfix_a2#branch                               0
vin#branch                                   0
vdd#branch                        -3.79064e-12

 Reference value :  6.91152e-08
 Reference value :  1.75833e-07
 Reference value :  2.76118e-07
No. of Data Rows : 68034

  Measurements for Transient Analysis

tphl                =  6.60533e-10 targ=  2.83969e-08 trig=  2.77363e-08
tplh                =  1.97364e-09 targ=  1.07183e-07 trig=  1.05209e-07
i_vdd_avg           =  -8.35286e-08 from=  1.00000e-08 to=  3.30003e-07
power_avg_uw        =  1.57473e-01


Total analysis time (seconds) = 0.888838

Total elapsed time (seconds) = 0.963 

Total DRAM available = 16384.000 MB.
DRAM currently available =  209.109 MB.
Maximum ngspice program size =   18.250 MB.
Current ngspice program size =   18.250 MB.

