
Note: No compatibility mode selected!


Circuit: GF180MCU library cell mux2_1 I0_to_Z__I1=0,S=0

Doing analysis at TEMP = 84.915326 and TNOM = 27.000000

Using SPARSE 1.3 as Direct Linear Solver

Initial Transient Solution
--------------------------

Node                                   Voltage
----                                   -------
vdd                                    1.74113
i0                                           0
i1                                           0
s                                            0
xu1.int04                              1.74113
z                                  1.28964e-08
xu1.net_1                            0.0459144
xu1.net_3                              1.29663
xu1.sel1_n                             1.74113
xu1.net_0                              1.74113
xu1.net_2                              1.74113
vfix_s#branch                                0
vfix_i1#branch                               0
vin#branch                                   0
vdd#branch                        -2.55474e-11

 Reference value :  3.79311e-08
 Reference value :  9.14211e-08
 Reference value :  1.45635e-07
 Reference value :  2.02751e-07
 Reference value :  2.57355e-07
 Reference value :  3.12340e-07
No. of Data Rows : 68034

  Measurements for Transient Analysis

tplh                =  7.37201e-09 targ=  3.14913e-08 trig=  2.41193e-08
tphl                =  4.19927e-09 targ=  9.85571e-08 trig=  9.43579e-08
i_vdd_avg           =  -2.02738e-06 from=  1.00000e-08 to=  3.30005e-07
power_avg_uw        =  3.52994e+00


Total analysis time (seconds) = 1.69213

Total elapsed time (seconds) = 1.777 

Total DRAM available = 16384.000 MB.
DRAM currently available =  116.641 MB.
Maximum ngspice program size =   17.438 MB.
Current ngspice program size =   17.438 MB.

