
Note: No compatibility mode selected!


Circuit: GF180MCU library cell oai21_1 A1_to_ZN__A2=0,B=1

Doing analysis at TEMP = -8.788753 and TNOM = 27.000000

Using SPARSE 1.3 as Direct Linear Solver

Initial Transient Solution
--------------------------

Node                                   Voltage
----                                   -------
vdd                                     1.7907
a1                                           0
a2                                           0
b                                       1.7907
zn                                      1.7907
xu1.net_0                          1.41821e-11
xu1.net_1                               1.7907
vfix_b#branch                                0
vfix_a2#branch                               0
vin#branch                                   0
vdd#branch                        -3.60416e-12

 Reference value :  6.34279e-08
 Reference value :  1.64358e-07
 Reference value :  2.70368e-07
No. of Data Rows : 68032

  Measurements for Transient Analysis

tphl                =  3.08493e-09 targ=  2.98101e-08 trig=  2.67252e-08
tplh                =  6.62971e-09 targ=  1.08805e-07 trig=  1.02176e-07
i_vdd_avg           =  -8.63136e-07 from=  1.00000e-08 to=  3.30003e-07
power_avg_uw        =  1.54562e+00


Total analysis time (seconds) = 0.880807

Total elapsed time (seconds) = 0.957 

Total DRAM available = 16384.000 MB.
DRAM currently available =  156.953 MB.
Maximum ngspice program size =   15.141 MB.
Current ngspice program size =   15.141 MB.

