
Note: No compatibility mode selected!


Circuit: GF180MCU library cell nand2_1 A1_to_ZN__A2=1

Doing analysis at TEMP = 73.074595 and TNOM = 27.000000

Using SPARSE 1.3 as Direct Linear Solver

Initial Transient Solution
--------------------------

Node                                   Voltage
----                                   -------
vdd                                    1.80447
a1                                           0
a2                                     1.80447
xu1.net_0                          6.63656e-09
zn                                     1.80447
vfix_a2#branch                               0
vin#branch                                   0
vdd#branch                         -2.8502e-12

 Reference value :  8.97133e-08
 Reference value :  2.27363e-07
No. of Data Rows : 68032

  Measurements for Transient Analysis

tphl                =  4.06525e-09 targ=  2.81957e-08 trig=  2.41304e-08
tplh                =  5.69753e-09 targ=  1.00089e-07 trig=  9.43912e-08
i_vdd_avg           =  -1.67971e-06 from=  1.00000e-08 to=  3.30004e-07
power_avg_uw        =  3.03098e+00


Total analysis time (seconds) = 0.693986

Total elapsed time (seconds) = 0.774 

Total DRAM available = 16384.000 MB.
DRAM currently available =  112.219 MB.
Maximum ngspice program size =   18.078 MB.
Current ngspice program size =   18.078 MB.

