
Note: No compatibility mode selected!


Circuit: GF180MCU library cell inv_1 I_to_ZN

Doing analysis at TEMP = 68.774053 and TNOM = 27.000000

Using SPARSE 1.3 as Direct Linear Solver

Initial Transient Solution
--------------------------

Node                                   Voltage
----                                   -------
vdd                                    1.93016
i                                            0
zn                                     1.93016
vin#branch                                   0
vdd#branch                        -2.77675e-12

 Reference value :  1.45829e-07
No. of Data Rows : 68032

  Measurements for Transient Analysis

tphl                =  3.82708e-09 targ=  3.17149e-08 trig=  2.78878e-08
tplh                =  6.79193e-09 targ=  1.12455e-07 trig=  1.05663e-07
i_vdd_avg           =  -1.84630e-06 from=  1.00000e-08 to=  3.30004e-07
power_avg_uw        =  3.56365e+00


Total analysis time (seconds) = 0.404866

Total elapsed time (seconds) = 0.500 

Total DRAM available = 16384.000 MB.
DRAM currently available =   95.656 MB.
Maximum ngspice program size =   18.625 MB.
Current ngspice program size =   18.625 MB.

