
Note: No compatibility mode selected!


Circuit: GF180MCU library cell xor2_1 A1_to_Z__A2=0

Doing analysis at TEMP = 90.786888 and TNOM = 27.000000

Using SPARSE 1.3 as Direct Linear Solver

Initial Transient Solution
--------------------------

Node                                   Voltage
----                                   -------
vdd                                    1.63714
a1                                           0
a2                                           0
xu1.i                                  1.63713
z                                  4.92586e-08
xu1.net_0                          2.35229e-08
xu1.net_2                              1.63713
xu1.net_1                             0.592291
vfix_a2#branch                               0
vin#branch                                   0
vdd#branch                        -2.97395e-11

 Reference value :  4.03645e-08
 Reference value :  1.04584e-07
 Reference value :  1.64911e-07
 Reference value :  2.27169e-07
 Reference value :  2.88031e-07
No. of Data Rows : 68030

  Measurements for Transient Analysis

tplh                =  1.48196e-08 targ=  4.22356e-08 trig=  2.74160e-08
tphl                =  5.42153e-09 targ=  1.09669e-07 trig=  1.04248e-07
i_vdd_avg           =  -1.63526e-06 from=  1.00000e-08 to=  3.30001e-07
power_avg_uw        =  2.67715e+00


Total analysis time (seconds) = 1.50285

Total elapsed time (seconds) = 1.590 

Total DRAM available = 16384.000 MB.
DRAM currently available =   95.656 MB.
Maximum ngspice program size =   18.688 MB.
Current ngspice program size =   18.688 MB.

