
Note: No compatibility mode selected!


Circuit: GF180MCU library cell oai21_1 A1_to_ZN__A2=0,B=1

Doing analysis at TEMP = 100.167990 and TNOM = 27.000000

Using SPARSE 1.3 as Direct Linear Solver

Initial Transient Solution
--------------------------

Node                                   Voltage
----                                   -------
vdd                                    1.83825
a1                                           0
a2                                           0
b                                      1.83825
zn                                     1.83825
xu1.net_0                           6.6196e-08
xu1.net_1                              1.83825
vfix_b#branch                                0
vfix_a2#branch                               0
vin#branch                                   0
vdd#branch                        -1.35899e-11

 Reference value :  6.57338e-08
 Reference value :  1.61105e-07
 Reference value :  2.56494e-07
No. of Data Rows : 68030

  Measurements for Transient Analysis

tphl                =  4.51820e-09 targ=  2.98864e-08 trig=  2.53682e-08
tplh                =  1.11447e-08 targ=  1.09249e-07 trig=  9.81045e-08
i_vdd_avg           =  -1.67631e-06 from=  1.00000e-08 to=  3.30000e-07
power_avg_uw        =  3.08149e+00


Total analysis time (seconds) = 0.976787

Total elapsed time (seconds) = 1.123 

Total DRAM available = 16384.000 MB.
DRAM currently available =  159.531 MB.
Maximum ngspice program size =   18.297 MB.
Current ngspice program size =   18.297 MB.

