
Note: No compatibility mode selected!


Circuit: GF180MCU library cell nor2_1 A1_to_ZN__A2=0

Doing analysis at TEMP = 88.566428 and TNOM = 27.000000

Using SPARSE 1.3 as Direct Linear Solver

Initial Transient Solution
--------------------------

Node                                   Voltage
----                                   -------
vdd                                    1.62868
a1                                           0
a2                                           0
zn                                     1.62868
xu1.net_0                              1.62868
vfix_a2#branch                               0
vin#branch                                   0
vdd#branch                        -8.17169e-12

 Reference value :  1.03603e-07
 Reference value :  2.52698e-07
No. of Data Rows : 68032

  Measurements for Transient Analysis

tphl                =  4.28298e-09 targ=  2.83905e-08 trig=  2.41075e-08
tplh                =  1.60431e-08 targ=  1.10366e-07 trig=  9.43226e-08
i_vdd_avg           =  -1.76854e-06 from=  1.00000e-08 to=  3.30003e-07
power_avg_uw        =  2.88040e+00


Total analysis time (seconds) = 0.631382

Total elapsed time (seconds) = 0.704 

Total DRAM available = 16384.000 MB.
DRAM currently available =  209.109 MB.
Maximum ngspice program size =   15.891 MB.
Current ngspice program size =   15.891 MB.

