
Note: No compatibility mode selected!


Circuit: GF180MCU library cell mux2_4 I0_to_Z__I1=0,S=0

Doing analysis at TEMP = 63.409574 and TNOM = 27.000000

Using SPARSE 1.3 as Direct Linear Solver

Initial Transient Solution
--------------------------

Node                                   Voltage
----                                   -------
vdd                                    1.72995
i0                                           0
i1                                           0
s                                            0
xu1.int04                              1.72995
z                                   1.2082e-08
xu1.net_1                            0.0318328
xu1.net_3                              1.21398
xu1.sel1_n                             1.72995
xu1.net_0                              1.72995
xu1.net_2                              1.72995
vfix_s#branch                                0
vfix_i1#branch                               0
vin#branch                                   0
vdd#branch                        -1.61215e-11

 Reference value :  2.52275e-08
 Reference value :  6.27342e-08
 Reference value :  9.90910e-08
 Reference value :  1.36336e-07
 Reference value :  1.72736e-07
 Reference value :  2.11574e-07
 Reference value :  2.51534e-07
 Reference value :  2.88251e-07
 Reference value :  3.27131e-07
No. of Data Rows : 68030

  Measurements for Transient Analysis

tplh                =  3.06372e-09 targ=  2.82196e-08 trig=  2.51559e-08
tphl                =  3.18295e-09 targ=  1.00651e-07 trig=  9.74676e-08
i_vdd_avg           =  -2.32094e-06 from=  1.00000e-08 to=  3.30001e-07
power_avg_uw        =  4.01511e+00


Total analysis time (seconds) = 2.42075

Total elapsed time (seconds) = 2.500 

Total DRAM available = 16384.000 MB.
DRAM currently available =  137.938 MB.
Maximum ngspice program size =   17.016 MB.
Current ngspice program size =   17.016 MB.

