
Note: No compatibility mode selected!


Circuit: GF180MCU library cell xor2_4 A1_to_Z__A2=0

Doing analysis at TEMP = 97.776891 and TNOM = 27.000000

Using SPARSE 1.3 as Direct Linear Solver

Initial Transient Solution
--------------------------

Node                                   Voltage
----                                   -------
vdd                                    1.91752
a1                                           0
a2                                           0
xu1.net_2                             0.049604
xu1.i                                  1.91752
xu1.net_0                           5.6975e-08
xu1.z_neg                              1.91752
z                                  1.33301e-08
xu1.net_1                              1.91752
vfix_a2#branch                               0
vin#branch                                   0
vdd#branch                        -2.68111e-11

 Reference value :  2.52725e-08
 Reference value :  6.09488e-08
 Reference value :  1.00369e-07
 Reference value :  1.37590e-07
 Reference value :  1.74005e-07
 Reference value :  2.11889e-07
 Reference value :  2.53314e-07
 Reference value :  2.90390e-07
 Reference value :  3.29280e-07
No. of Data Rows : 68030

  Measurements for Transient Analysis

tplh                =  1.23096e-09 targ=  2.76391e-08 trig=  2.64082e-08
tphl                =  2.30051e-09 targ=  1.03525e-07 trig=  1.01224e-07
i_vdd_avg           =  -3.44688e-07 from=  1.00000e-08 to=  3.30000e-07
power_avg_uw        =  6.60948e-01


Total analysis time (seconds) = 2.52824

Total elapsed time (seconds) = 2.614 

Total DRAM available = 16384.000 MB.
DRAM currently available =   87.578 MB.
Maximum ngspice program size =   17.750 MB.
Current ngspice program size =   17.750 MB.

