
Note: No compatibility mode selected!


Circuit: GF180MCU library cell inv_4 I_to_ZN

Doing analysis at TEMP = 4.024008 and TNOM = 27.000000

Using SPARSE 1.3 as Direct Linear Solver

Initial Transient Solution
--------------------------

Node                                   Voltage
----                                   -------
vdd                                    1.96411
i                                            0
zn                                     1.96411
vin#branch                                   0
vdd#branch                         -7.9182e-12

 Reference value :  5.30385e-08
 Reference value :  1.32595e-07
 Reference value :  2.10434e-07
 Reference value :  2.90540e-07
No. of Data Rows : 68032

  Measurements for Transient Analysis

tphl                =  7.49687e-10 targ=  2.58602e-08 trig=  2.51105e-08
tplh                =  1.27310e-09 targ=  9.86046e-08 trig=  9.73315e-08
i_vdd_avg           =  -1.15130e-06 from=  1.00000e-08 to=  3.30005e-07
power_avg_uw        =  2.26127e+00


Total analysis time (seconds) = 1.21759

Total elapsed time (seconds) = 1.329 

Total DRAM available = 16384.000 MB.
DRAM currently available =  161.922 MB.
Maximum ngspice program size =   18.609 MB.
Current ngspice program size =   18.609 MB.

