
Note: No compatibility mode selected!


Circuit: GF180MCU library cell nand2_1 A1_to_ZN__A2=1

Doing analysis at TEMP = 97.781971 and TNOM = 27.000000

Using SPARSE 1.3 as Direct Linear Solver

Initial Transient Solution
--------------------------

Node                                   Voltage
----                                   -------
vdd                                    1.95467
a1                                           0
a2                                     1.95467
xu1.net_0                          2.82969e-08
zn                                     1.95467
vfix_a2#branch                               0
vin#branch                                   0
vdd#branch                        -6.54034e-12

 Reference value :  1.08349e-07
 Reference value :  2.54709e-07
No. of Data Rows : 68030

  Measurements for Transient Analysis

tphl                =  6.09926e-09 targ=  3.42701e-08 trig=  2.81708e-08
tplh                =  8.27268e-09 targ=  1.14785e-07 trig=  1.06512e-07
i_vdd_avg           =  -2.23104e-06 from=  1.00000e-08 to=  3.30001e-07
power_avg_uw        =  4.36095e+00


Total analysis time (seconds) = 0.616343

Total elapsed time (seconds) = 0.688 

Total DRAM available = 16384.000 MB.
DRAM currently available =  289.203 MB.
Maximum ngspice program size =   18.062 MB.
Current ngspice program size =   18.062 MB.

