
Note: No compatibility mode selected!


Circuit: GF180MCU library cell oai21_4 A1_to_ZN__A2=0,B=1

Doing analysis at TEMP = -35.017573 and TNOM = 27.000000

Using SPARSE 1.3 as Direct Linear Solver

Initial Transient Solution
--------------------------

Node                                   Voltage
----                                   -------
vdd                                    1.76175
a1                                           0
a2                                           0
b                                      1.76175
zn                                     1.76175
xu1.net_0                          6.00852e-13
xu1.net_1_0                            1.76175
xu1.net_1_1                            1.76175
xu1.net_1_2                            1.76175
xu1.net_1_3                            1.76175
vfix_b#branch                                0
vfix_a2#branch                               0
vin#branch                                   0
vdd#branch                        -1.41745e-11

 Reference value :  1.93364e-08
 Reference value :  4.90352e-08
 Reference value :  7.67002e-08
 Reference value :  1.04085e-07
 Reference value :  1.32118e-07
 Reference value :  1.61033e-07
 Reference value :  1.91790e-07
 Reference value :  2.20060e-07
 Reference value :  2.47370e-07
 Reference value :  2.76728e-07
 Reference value :  3.06638e-07
 Reference value :  3.36268e-07
No. of Data Rows : 68034

  Measurements for Transient Analysis

tphl                =  2.09435e-09 targ=  2.95607e-08 trig=  2.74664e-08
tplh                =  4.20753e-09 targ=  1.08607e-07 trig=  1.04399e-07
i_vdd_avg           =  -1.31396e-06 from=  1.00000e-08 to=  3.30003e-07
power_avg_uw        =  2.31487e+00


Total analysis time (seconds) = 3.22932

Total elapsed time (seconds) = 3.310 

Total DRAM available = 16384.000 MB.
DRAM currently available =  155.188 MB.
Maximum ngspice program size =   16.516 MB.
Current ngspice program size =   16.516 MB.

