
Note: No compatibility mode selected!


Circuit: GF180MCU library cell oai21_4 A1_to_ZN__A2=0,B=1

Doing analysis at TEMP = 12.967922 and TNOM = 27.000000

Using SPARSE 1.3 as Direct Linear Solver

Initial Transient Solution
--------------------------

Node                                   Voltage
----                                   -------
vdd                                    1.70141
a1                                           0
a2                                           0
b                                      1.70141
zn                                     1.70141
xu1.net_0                          1.30796e-10
xu1.net_1_0                            1.70141
xu1.net_1_1                            1.70141
xu1.net_1_2                            1.70141
xu1.net_1_3                            1.70141
vfix_b#branch                                0
vfix_a2#branch                               0
vin#branch                                   0
vdd#branch                          -1.378e-11

 Reference value :  1.85964e-08
 Reference value :  4.86106e-08
 Reference value :  7.58806e-08
 Reference value :  1.02401e-07
 Reference value :  1.28654e-07
 Reference value :  1.56644e-07
 Reference value :  1.86143e-07
 Reference value :  2.13461e-07
 Reference value :  2.42716e-07
 Reference value :  2.70986e-07
 Reference value :  2.98894e-07
 Reference value :  3.26004e-07
No. of Data Rows : 68034

  Measurements for Transient Analysis

tphl                =  3.39304e-09 targ=  3.29421e-08 trig=  2.95490e-08
tplh                =  6.95185e-09 targ=  1.17599e-07 trig=  1.10647e-07
i_vdd_avg           =  -1.87343e-06 from=  1.00000e-08 to=  3.30004e-07
power_avg_uw        =  3.18747e+00


Total analysis time (seconds) = 3.7272

Total elapsed time (seconds) = 3.813 

Total DRAM available = 16384.000 MB.
DRAM currently available =  106.609 MB.
Maximum ngspice program size =   17.344 MB.
Current ngspice program size =   17.344 MB.

