
Note: No compatibility mode selected!


Circuit: GF180MCU library cell mux2_4 I0_to_Z__I1=0,S=0

Doing analysis at TEMP = -10.078692 and TNOM = 27.000000

Using SPARSE 1.3 as Direct Linear Solver

Initial Transient Solution
--------------------------

Node                                   Voltage
----                                   -------
vdd                                    1.85069
i0                                           0
i1                                           0
s                                            0
xu1.int04                              1.85069
z                                  9.56954e-09
xu1.net_1                           0.00042705
xu1.net_3                              1.18943
xu1.sel1_n                             1.85069
xu1.net_0                              1.85069
xu1.net_2                              1.85069
vfix_s#branch                                0
vfix_i1#branch                               0
vin#branch                                   0
vdd#branch                        -1.57953e-11

 Reference value :  2.22464e-08
 Reference value :  5.92186e-08
 Reference value :  9.55986e-08
 Reference value :  1.32675e-07
 Reference value :  1.70940e-07
 Reference value :  2.10024e-07
 Reference value :  2.48829e-07
 Reference value :  2.82455e-07
 Reference value :  3.21055e-07
No. of Data Rows : 68032

  Measurements for Transient Analysis

tplh                =  2.69689e-09 targ=  2.99150e-08 trig=  2.72181e-08
tphl                =  3.39155e-09 targ=  1.07046e-07 trig=  1.03654e-07
i_vdd_avg           =  -2.06251e-06 from=  1.00000e-08 to=  3.30005e-07
power_avg_uw        =  3.81706e+00


Total analysis time (seconds) = 2.61529

Total elapsed time (seconds) = 2.695 

Total DRAM available = 16384.000 MB.
DRAM currently available =   95.656 MB.
Maximum ngspice program size =   18.062 MB.
Current ngspice program size =   18.062 MB.

