
Note: No compatibility mode selected!


Circuit: GF180MCU library cell nand3_1 A1_to_ZN__A2=1,A3=1

Doing analysis at TEMP = 64.289840 and TNOM = 27.000000

Using SPARSE 1.3 as Direct Linear Solver

Initial Transient Solution
--------------------------

Node                                   Voltage
----                                   -------
vdd                                    1.63424
a1                                           0
a2                                     1.63424
a3                                     1.63424
xu1.net_1                          3.92058e-09
xu1.net_0                          7.84116e-09
zn                                     1.63424
vfix_a3#branch                               0
vfix_a2#branch                               0
vin#branch                                   0
vdd#branch                        -2.19298e-12

 Reference value :  6.98303e-08
 Reference value :  1.71698e-07
 Reference value :  2.74773e-07
No. of Data Rows : 68034

  Measurements for Transient Analysis

tphl                =  6.70467e-09 targ=  3.15211e-08 trig=  2.48164e-08
tplh                =  7.82138e-09 targ=  1.04271e-07 trig=  9.64492e-08
i_vdd_avg           =  -1.40915e-06 from=  1.00000e-08 to=  3.30003e-07
power_avg_uw        =  2.30289e+00


Total analysis time (seconds) = 0.945496

Total elapsed time (seconds) = 1.025 

Total DRAM available = 16384.000 MB.
DRAM currently available =  147.375 MB.
Maximum ngspice program size =   17.844 MB.
Current ngspice program size =   17.844 MB.

