
Note: No compatibility mode selected!


Circuit: GF180MCU library cell oai21_1 A1_to_ZN__A2=0,B=1

Doing analysis at TEMP = 78.375370 and TNOM = 27.000000

Using SPARSE 1.3 as Direct Linear Solver

Initial Transient Solution
--------------------------

Node                                   Voltage
----                                   -------
vdd                                    1.71562
a1                                           0
a2                                           0
b                                      1.71562
zn                                     1.71562
xu1.net_0                          1.90157e-08
xu1.net_1                              1.71562
vfix_b#branch                                0
vfix_a2#branch                               0
vin#branch                                   0
vdd#branch                        -6.19644e-12

 Reference value :  6.50794e-08
 Reference value :  1.59306e-07
 Reference value :  2.55634e-07
No. of Data Rows : 68030

  Measurements for Transient Analysis

tphl                =  4.26564e-09 targ=  3.37516e-08 trig=  2.94860e-08
tplh                =  8.38903e-09 targ=  1.18847e-07 trig=  1.10458e-07
i_vdd_avg           =  -7.33937e-07 from=  1.00000e-08 to=  3.30001e-07
power_avg_uw        =  1.25916e+00


Total analysis time (seconds) = 1.19561

Total elapsed time (seconds) = 1.259 

Total DRAM available = 16384.000 MB.
DRAM currently available =  106.609 MB.
Maximum ngspice program size =   15.250 MB.
Current ngspice program size =   15.250 MB.

