
Note: No compatibility mode selected!


Circuit: GF180MCU library cell nor2_4 A1_to_ZN__A2=0

Doing analysis at TEMP = 71.411164 and TNOM = 27.000000

Using SPARSE 1.3 as Direct Linear Solver

Initial Transient Solution
--------------------------

Node                                   Voltage
----                                   -------
vdd                                    1.63977
a1                                           0
a2                                           0
zn                                     1.63977
xu1.net_0_0                            1.63977
xu1.net_0_1                            1.63977
xu1.net_0_2                            1.63977
xu1.net_0_3                            1.63977
vfix_a2#branch                               0
vin#branch                                   0
vdd#branch                         -2.0439e-11

 Reference value :  2.84458e-08
 Reference value :  7.17258e-08
 Reference value :  1.09599e-07
 Reference value :  1.51899e-07
 Reference value :  1.95986e-07
 Reference value :  2.38276e-07
 Reference value :  2.78779e-07
 Reference value :  3.20464e-07
No. of Data Rows : 68034

  Measurements for Transient Analysis

tphl                =  1.38201e-09 targ=  2.58561e-08 trig=  2.44741e-08
tplh                =  4.56178e-09 targ=  9.99842e-08 trig=  9.54224e-08
i_vdd_avg           =  -1.96576e-06 from=  1.00000e-08 to=  3.30004e-07
power_avg_uw        =  3.22339e+00


Total analysis time (seconds) = 2.44398

Total elapsed time (seconds) = 2.529 

Total DRAM available = 16384.000 MB.
DRAM currently available =  215.547 MB.
Maximum ngspice program size =   18.500 MB.
Current ngspice program size =   18.500 MB.

