
Note: No compatibility mode selected!


Circuit: GF180MCU library cell nand3_1 A1_to_ZN__A2=1,A3=1

Doing analysis at TEMP = -27.419459 and TNOM = 27.000000

Using SPARSE 1.3 as Direct Linear Solver

Initial Transient Solution
--------------------------

Node                                   Voltage
----                                   -------
vdd                                    1.69852
a1                                           0
a2                                     1.69852
a3                                     1.69852
xu1.net_1                          8.22686e-13
xu1.net_0                          1.64538e-12
zn                                     1.69852
vfix_a3#branch                               0
vfix_a2#branch                               0
vin#branch                                   0
vdd#branch                        -1.70868e-12

 Reference value :  6.73339e-08
 Reference value :  1.65180e-07
 Reference value :  2.65164e-07
No. of Data Rows : 68030

  Measurements for Transient Analysis

tphl                =  3.99573e-09 targ=  3.14339e-08 trig=  2.74382e-08
tplh                =  5.14721e-09 targ=  1.09462e-07 trig=  1.04315e-07
i_vdd_avg           =  -7.02425e-07 from=  1.00000e-08 to=  3.30000e-07
power_avg_uw        =  1.19308e+00


Total analysis time (seconds) = 0.930365

Total elapsed time (seconds) = 1.015 

Total DRAM available = 16384.000 MB.
DRAM currently available =  124.844 MB.
Maximum ngspice program size =   16.734 MB.
Current ngspice program size =   16.734 MB.

