
Note: No compatibility mode selected!


Circuit: GF180MCU library cell inv_4 I_to_ZN

Doing analysis at TEMP = -32.701627 and TNOM = 27.000000

Using SPARSE 1.3 as Direct Linear Solver

Initial Transient Solution
--------------------------

Node                                   Voltage
----                                   -------
vdd                                    1.81749
i                                            0
zn                                     1.81749
vin#branch                                   0
vdd#branch                        -7.31031e-12

 Reference value :  5.38269e-08
 Reference value :  1.39496e-07
 Reference value :  2.19362e-07
 Reference value :  2.95941e-07
No. of Data Rows : 68032

  Measurements for Transient Analysis

tphl                =  6.24252e-10 targ=  2.54890e-08 trig=  2.48647e-08
tplh                =  1.04371e-09 targ=  9.76379e-08 trig=  9.65941e-08
i_vdd_avg           =  -7.62731e-07 from=  1.00000e-08 to=  3.30001e-07
power_avg_uw        =  1.38626e+00


Total analysis time (seconds) = 1.18914

Total elapsed time (seconds) = 1.267 

Total DRAM available = 16384.000 MB.
DRAM currently available =  152.094 MB.
Maximum ngspice program size =   16.625 MB.
Current ngspice program size =   16.625 MB.

