
Note: No compatibility mode selected!


Circuit: GF180MCU library cell nand3_1 A1_to_ZN__A2=1,A3=1

Doing analysis at TEMP = 42.319908 and TNOM = 27.000000

Using SPARSE 1.3 as Direct Linear Solver

Initial Transient Solution
--------------------------

Node                                   Voltage
----                                   -------
vdd                                    1.76928
a1                                           0
a2                                     1.76928
a3                                     1.76928
xu1.net_1                          7.70939e-10
xu1.net_0                          1.54188e-09
zn                                     1.76928
vfix_a3#branch                               0
vfix_a2#branch                               0
vin#branch                                   0
vdd#branch                        -1.90638e-12

 Reference value :  6.40144e-08
 Reference value :  1.61526e-07
 Reference value :  2.60294e-07
No. of Data Rows : 68030

  Measurements for Transient Analysis

tphl                =  5.01291e-09 targ=  3.37664e-08 trig=  2.87534e-08
tplh                =  6.31754e-09 targ=  1.14578e-07 trig=  1.08260e-07
i_vdd_avg           =  -8.88132e-07 from=  1.00000e-08 to=  3.30001e-07
power_avg_uw        =  1.57136e+00


Total analysis time (seconds) = 0.926498

Total elapsed time (seconds) = 1.004 

Total DRAM available = 16384.000 MB.
DRAM currently available =  155.188 MB.
Maximum ngspice program size =   16.891 MB.
Current ngspice program size =   16.891 MB.

