
Note: No compatibility mode selected!


Circuit: GF180MCU library cell mux2_4 I0_to_Z__I1=0,S=0

Doing analysis at TEMP = 98.596413 and TNOM = 27.000000

Using SPARSE 1.3 as Direct Linear Solver

Initial Transient Solution
--------------------------

Node                                   Voltage
----                                   -------
vdd                                    1.92505
i0                                           0
i1                                           0
s                                            0
xu1.int04                              1.92505
z                                   1.3377e-08
xu1.net_1                            0.0459757
xu1.net_3                              1.40579
xu1.sel1_n                             1.92505
xu1.net_0                              1.92505
xu1.net_2                              1.92505
vfix_s#branch                                0
vfix_i1#branch                               0
vin#branch                                   0
vdd#branch                        -2.66529e-11

 Reference value :  2.33114e-08
 Reference value :  6.11005e-08
 Reference value :  9.77605e-08
 Reference value :  1.35478e-07
 Reference value :  1.73108e-07
 Reference value :  2.07565e-07
 Reference value :  2.43225e-07
 Reference value :  2.79098e-07
 Reference value :  3.13683e-07
No. of Data Rows : 68034

  Measurements for Transient Analysis

tplh                =  2.32130e-09 targ=  2.88528e-08 trig=  2.65315e-08
tphl                =  2.96518e-09 targ=  1.04560e-07 trig=  1.01594e-07
i_vdd_avg           =  -1.81770e-06 from=  1.00000e-08 to=  3.30003e-07
power_avg_uw        =  3.49916e+00


Total analysis time (seconds) = 2.69755

Total elapsed time (seconds) = 2.790 

Total DRAM available = 16384.000 MB.
DRAM currently available =  120.719 MB.
Maximum ngspice program size =   18.453 MB.
Current ngspice program size =   18.453 MB.

