
Note: No compatibility mode selected!


Circuit: GF180MCU library cell oai21_1 A1_to_ZN__A2=0,B=1

Doing analysis at TEMP = 47.849993 and TNOM = 27.000000

Using SPARSE 1.3 as Direct Linear Solver

Initial Transient Solution
--------------------------

Node                                   Voltage
----                                   -------
vdd                                    1.96878
a1                                           0
a2                                           0
b                                      1.96878
zn                                     1.96877
xu1.net_0                          2.23881e-09
xu1.net_1                              1.96878
vfix_b#branch                                0
vfix_a2#branch                               0
vin#branch                                   0
vdd#branch                         -4.3735e-12

 Reference value :  6.36600e-08
 Reference value :  1.62853e-07
 Reference value :  2.58728e-07
No. of Data Rows : 68034

  Measurements for Transient Analysis

tphl                =  2.66321e-09 targ=  2.68970e-08 trig=  2.42338e-08
tplh                =  6.85093e-09 targ=  1.01552e-07 trig=  9.47013e-08
i_vdd_avg           =  -1.39942e-06 from=  1.00000e-08 to=  3.30003e-07
power_avg_uw        =  2.75514e+00


Total analysis time (seconds) = 0.928143

Total elapsed time (seconds) = 1.017 

Total DRAM available = 16384.000 MB.
DRAM currently available =  137.938 MB.
Maximum ngspice program size =   16.578 MB.
Current ngspice program size =   16.578 MB.

