
Note: No compatibility mode selected!


Circuit: GF180MCU library cell xor2_4 A1_to_Z__A2=0

Doing analysis at TEMP = 93.439039 and TNOM = 27.000000

Using SPARSE 1.3 as Direct Linear Solver

Initial Transient Solution
--------------------------

Node                                   Voltage
----                                   -------
vdd                                    1.81975
a1                                           0
a2                                           0
xu1.net_2                            0.0479484
xu1.i                                  1.81975
xu1.net_0                          4.54988e-08
xu1.z_neg                              1.81975
z                                  1.32001e-08
xu1.net_1                              1.81975
vfix_a2#branch                               0
vin#branch                                   0
vdd#branch                        -2.31076e-11

 Reference value :  2.96825e-08
 Reference value :  6.85902e-08
 Reference value :  1.05625e-07
 Reference value :  1.41353e-07
 Reference value :  1.78948e-07
 Reference value :  2.15865e-07
 Reference value :  2.52475e-07
 Reference value :  2.89118e-07
 Reference value :  3.27398e-07
No. of Data Rows : 68034

  Measurements for Transient Analysis

tplh                =  3.35531e-09 targ=  3.31092e-08 trig=  2.97539e-08
tphl                =  4.98520e-09 targ=  1.16247e-07 trig=  1.11262e-07
i_vdd_avg           =  -2.34322e-06 from=  1.00000e-08 to=  3.30003e-07
power_avg_uw        =  4.26407e+00


Total analysis time (seconds) = 2.63505

Total elapsed time (seconds) = 2.719 

Total DRAM available = 16384.000 MB.
DRAM currently available =  161.922 MB.
Maximum ngspice program size =   18.500 MB.
Current ngspice program size =   18.500 MB.

