
Note: No compatibility mode selected!


Circuit: GF180MCU library cell aoi21_4 A1_to_ZN__A2=1,B=0

Doing analysis at TEMP = 12.610333 and TNOM = 27.000000

Using SPARSE 1.3 as Direct Linear Solver

Initial Transient Solution
--------------------------

Node                                   Voltage
----                                   -------
vdd                                    1.95635
a1                                           0
a2                                     1.95635
b                                            0
xu1.net_0_0                        5.92136e-11
zn                                     1.95635
xu1.net_0_1                        5.92132e-11
xu1.net_0_2                        5.92136e-11
xu1.net_0_3                        5.92132e-11
xu1.net_1                              1.95635
vfix_b#branch                                0
vfix_a2#branch                               0
vin#branch                                   0
vdd#branch                        -1.58444e-11

 Reference value :  2.04514e-08
 Reference value :  4.97049e-08
 Reference value :  7.76299e-08
 Reference value :  1.05420e-07
 Reference value :  1.32682e-07
 Reference value :  1.62642e-07
 Reference value :  1.91783e-07
 Reference value :  2.19215e-07
 Reference value :  2.48450e-07
 Reference value :  2.77672e-07
 Reference value :  3.06167e-07
 Reference value :  3.33687e-07
No. of Data Rows : 68030

  Measurements for Transient Analysis

tphl                =  7.82510e-10 targ=  3.00437e-08 trig=  2.92612e-08
tplh                =  2.66930e-09 targ=  1.12453e-07 trig=  1.09784e-07
i_vdd_avg           =  -5.82924e-07 from=  1.00000e-08 to=  3.30002e-07
power_avg_uw        =  1.14040e+00


Total analysis time (seconds) = 3.49265

Total elapsed time (seconds) = 3.586 

Total DRAM available = 16384.000 MB.
DRAM currently available =  106.109 MB.
Maximum ngspice program size =   17.094 MB.
Current ngspice program size =   17.094 MB.

