
Note: No compatibility mode selected!


Circuit: GF180MCU library cell xor2_1 A1_to_Z__A2=0

Doing analysis at TEMP = 52.043326 and TNOM = 27.000000

Using SPARSE 1.3 as Direct Linear Solver

Initial Transient Solution
--------------------------

Node                                   Voltage
----                                   -------
vdd                                    1.75837
a1                                           0
a2                                           0
xu1.i                                  1.75837
z                                   4.2458e-08
xu1.net_0                          1.37313e-08
xu1.net_2                              1.75837
xu1.net_1                             0.691085
vfix_a2#branch                               0
vin#branch                                   0
vdd#branch                        -1.26926e-11

 Reference value :  4.00510e-08
 Reference value :  1.01729e-07
 Reference value :  1.66504e-07
 Reference value :  2.33561e-07
 Reference value :  2.96684e-07
No. of Data Rows : 68034

  Measurements for Transient Analysis

tplh                =  6.01555e-09 targ=  3.02148e-08 trig=  2.41992e-08
tphl                =  2.30338e-09 targ=  9.69011e-08 trig=  9.45977e-08
i_vdd_avg           =  -8.88441e-07 from=  1.00000e-08 to=  3.30004e-07
power_avg_uw        =  1.56221e+00


Total analysis time (seconds) = 1.47882

Total elapsed time (seconds) = 1.574 

Total DRAM available = 16384.000 MB.
DRAM currently available =  152.094 MB.
Maximum ngspice program size =   17.266 MB.
Current ngspice program size =   17.266 MB.

