
Note: No compatibility mode selected!


Circuit: GF180MCU library cell inv_1 I_to_ZN

Doing analysis at TEMP = 15.083536 and TNOM = 27.000000

Using SPARSE 1.3 as Direct Linear Solver

Initial Transient Solution
--------------------------

Node                                   Voltage
----                                   -------
vdd                                    1.76198
i                                            0
zn                                     1.76198
vin#branch                                   0
vdd#branch                         -1.7858e-12

 Reference value :  1.43842e-07
No. of Data Rows : 68030

  Measurements for Transient Analysis

tphl                =  9.34284e-10 targ=  2.57078e-08 trig=  2.47735e-08
tplh                =  1.77673e-09 targ=  9.80973e-08 trig=  9.63206e-08
i_vdd_avg           =  -4.15805e-07 from=  1.00000e-08 to=  3.30002e-07
power_avg_uw        =  7.32640e-01


Total analysis time (seconds) = 0.446677

Total elapsed time (seconds) = 0.535 

Total DRAM available = 16384.000 MB.
DRAM currently available =  152.094 MB.
Maximum ngspice program size =   17.109 MB.
Current ngspice program size =   17.109 MB.

