
Note: No compatibility mode selected!


Circuit: GF180MCU library cell mux2_4 I0_to_Z__I1=0,S=0

Doing analysis at TEMP = -27.994322 and TNOM = 27.000000

Using SPARSE 1.3 as Direct Linear Solver

Initial Transient Solution
--------------------------

Node                                   Voltage
----                                   -------
vdd                                    1.65155
i0                                           0
i1                                           0
s                                            0
xu1.int04                              1.65155
z                                   9.4477e-09
xu1.net_1                          4.93381e-05
xu1.net_3                             0.998993
xu1.sel1_n                             1.65155
xu1.net_0                              1.65155
xu1.net_2                              1.65155
vfix_s#branch                                0
vfix_i1#branch                               0
vin#branch                                   0
vdd#branch                        -1.39626e-11

 Reference value :  2.90875e-08
 Reference value :  6.94513e-08
 Reference value :  1.08656e-07
 Reference value :  1.46470e-07
 Reference value :  1.87653e-07
 Reference value :  2.24851e-07
 Reference value :  2.63971e-07
 Reference value :  3.02200e-07
No. of Data Rows : 68032

  Measurements for Transient Analysis

tplh                =  3.50716e-09 targ=  3.34091e-08 trig=  2.99019e-08
tphl                =  5.18915e-09 targ=  1.16895e-07 trig=  1.11706e-07
i_vdd_avg           =  -1.17590e-06 from=  1.00000e-08 to=  3.30000e-07
power_avg_uw        =  1.94206e+00


Total analysis time (seconds) = 2.44635

Total elapsed time (seconds) = 2.517 

Total DRAM available = 16384.000 MB.
DRAM currently available =  215.547 MB.
Maximum ngspice program size =   17.188 MB.
Current ngspice program size =   17.188 MB.

