
Note: No compatibility mode selected!


Circuit: GF180MCU library cell mux2_1 I0_to_Z__I1=0,S=0

Doing analysis at TEMP = 117.100410 and TNOM = 27.000000

Using SPARSE 1.3 as Direct Linear Solver

Initial Transient Solution
--------------------------

Node                                   Voltage
----                                   -------
vdd                                    1.96497
i0                                           0
i1                                           0
s                                            0
xu1.int04                              1.96496
z                                  1.52427e-08
xu1.net_1                            0.0520387
xu1.net_3                              1.48139
xu1.sel1_n                             1.96497
xu1.net_0                              1.96497
xu1.net_2                              1.96497
vfix_s#branch                                0
vfix_i1#branch                               0
vin#branch                                   0
vdd#branch                        -9.13655e-11

 Reference value :  4.34499e-08
 Reference value :  1.06792e-07
 Reference value :  1.60092e-07
 Reference value :  2.15850e-07
 Reference value :  2.68452e-07
 Reference value :  3.21537e-07
No. of Data Rows : 68030

  Measurements for Transient Analysis

tplh                =  2.46136e-09 targ=  2.91576e-08 trig=  2.66962e-08
tphl                =  2.82767e-09 targ=  1.04916e-07 trig=  1.02089e-07
i_vdd_avg           =  -7.81112e-07 from=  1.00000e-08 to=  3.30002e-07
power_avg_uw        =  1.53486e+00


Total analysis time (seconds) = 1.61984

Total elapsed time (seconds) = 1.702 

Total DRAM available = 16384.000 MB.
DRAM currently available =  209.109 MB.
Maximum ngspice program size =   17.469 MB.
Current ngspice program size =   17.469 MB.

