
Note: No compatibility mode selected!


Circuit: GF180MCU library cell nor2_4 A1_to_ZN__A2=0

Doing analysis at TEMP = 102.072290 and TNOM = 27.000000

Using SPARSE 1.3 as Direct Linear Solver

Initial Transient Solution
--------------------------

Node                                   Voltage
----                                   -------
vdd                                    1.85818
a1                                           0
a2                                           0
zn                                     1.85818
xu1.net_0_0                            1.85818
xu1.net_0_1                            1.85818
xu1.net_0_2                            1.85818
xu1.net_0_3                            1.85818
vfix_a2#branch                               0
vin#branch                                   0
vdd#branch                        -5.96505e-11

 Reference value :  2.77375e-08
 Reference value :  6.73871e-08
 Reference value :  1.08087e-07
 Reference value :  1.47332e-07
 Reference value :  1.90567e-07
 Reference value :  2.31627e-07
 Reference value :  2.74472e-07
 Reference value :  3.16222e-07
No. of Data Rows : 68032

  Measurements for Transient Analysis

tphl                =  1.68250e-09 targ=  2.79998e-08 trig=  2.63173e-08
tplh                =  3.57306e-09 targ=  1.04525e-07 trig=  1.00952e-07
i_vdd_avg           =  -1.63827e-06 from=  1.00000e-08 to=  3.30002e-07
power_avg_uw        =  3.04419e+00


Total analysis time (seconds) = 2.30362

Total elapsed time (seconds) = 2.393 

Total DRAM available = 16384.000 MB.
DRAM currently available =  102.000 MB.
Maximum ngspice program size =   17.812 MB.
Current ngspice program size =   17.812 MB.

