
Note: No compatibility mode selected!


Circuit: GF180MCU library cell xor2_4 A1_to_Z__A2=0

Doing analysis at TEMP = -23.489699 and TNOM = 27.000000

Using SPARSE 1.3 as Direct Linear Solver

Initial Transient Solution
--------------------------

Node                                   Voltage
----                                   -------
vdd                                    1.95082
a1                                           0
a2                                           0
xu1.net_2                          0.000888464
xu1.i                                  1.95082
xu1.net_0                          2.50328e-12
xu1.z_neg                              1.95082
z                                  9.02008e-09
xu1.net_1                              1.95082
vfix_a2#branch                               0
vin#branch                                   0
vdd#branch                        -1.41242e-11

 Reference value :  2.68225e-08
 Reference value :  6.62613e-08
 Reference value :  1.03001e-07
 Reference value :  1.41080e-07
 Reference value :  1.77670e-07
 Reference value :  2.13441e-07
 Reference value :  2.50396e-07
 Reference value :  2.87300e-07
 Reference value :  3.22390e-07
No. of Data Rows : 68032

  Measurements for Transient Analysis

tplh                =  1.97682e-09 targ=  3.04537e-08 trig=  2.84769e-08
tphl                =  3.50046e-09 targ=  1.10931e-07 trig=  1.07431e-07
i_vdd_avg           =  -1.23915e-06 from=  1.00000e-08 to=  3.30000e-07
power_avg_uw        =  2.41736e+00


Total analysis time (seconds) = 2.4783

Total elapsed time (seconds) = 2.564 

Total DRAM available = 16384.000 MB.
DRAM currently available =  116.641 MB.
Maximum ngspice program size =   17.328 MB.
Current ngspice program size =   17.328 MB.

