
Note: No compatibility mode selected!


Circuit: GF180MCU library cell aoi21_1 A1_to_ZN__A2=1,B=0

Doing analysis at TEMP = 35.649026 and TNOM = 27.000000

Using SPARSE 1.3 as Direct Linear Solver

Initial Transient Solution
--------------------------

Node                                   Voltage
----                                   -------
vdd                                    1.77163
a1                                           0
a2                                     1.77163
b                                            0
xu1.net_0                          4.55898e-10
zn                                     1.77163
xu1.net_1                              1.77163
vfix_b#branch                                0
vfix_a2#branch                               0
vin#branch                                   0
vdd#branch                        -3.73782e-12

 Reference value :  6.08008e-08
 Reference value :  1.57744e-07
 Reference value :  2.55131e-07
No. of Data Rows : 68034

  Measurements for Transient Analysis

tphl                =  1.79993e-09 targ=  2.82691e-08 trig=  2.64692e-08
tplh                =  3.48417e-09 targ=  1.04892e-07 trig=  1.01407e-07
i_vdd_avg           =  -3.29703e-07 from=  1.00000e-08 to=  3.30004e-07
power_avg_uw        =  5.84111e-01


Total analysis time (seconds) = 1.06566

Total elapsed time (seconds) = 1.151 

Total DRAM available = 16384.000 MB.
DRAM currently available =  120.719 MB.
Maximum ngspice program size =   18.531 MB.
Current ngspice program size =   18.531 MB.

