
Note: No compatibility mode selected!


Circuit: GF180MCU library cell nand2_4 A1_to_ZN__A2=1

Doing analysis at TEMP = -31.948815 and TNOM = 27.000000

Using SPARSE 1.3 as Direct Linear Solver

Initial Transient Solution
--------------------------

Node                                   Voltage
----                                   -------
vdd                                    1.92305
a1                                           0
a2                                     1.92305
xu1.net_0_0                        4.32523e-13
zn                                     1.92305
xu1.net_0_1                        4.32531e-13
xu1.net_0_2                        4.32523e-13
xu1.net_0_3                        4.32531e-13
vfix_a2#branch                               0
vin#branch                                   0
vdd#branch                        -7.73258e-12

 Reference value :  2.83762e-08
 Reference value :  6.94762e-08
 Reference value :  1.09830e-07
 Reference value :  1.52590e-07
 Reference value :  1.94201e-07
 Reference value :  2.39221e-07
 Reference value :  2.82540e-07
 Reference value :  3.23410e-07
No. of Data Rows : 68034

  Measurements for Transient Analysis

tphl                =  1.14007e-09 targ=  2.65569e-08 trig=  2.54169e-08
tplh                =  1.60178e-09 targ=  9.98523e-08 trig=  9.82506e-08
i_vdd_avg           =  -1.26417e-06 from=  1.00000e-08 to=  3.30005e-07
power_avg_uw        =  2.43105e+00


Total analysis time (seconds) = 2.33552

Total elapsed time (seconds) = 2.416 

Total DRAM available = 16384.000 MB.
DRAM currently available =  120.719 MB.
Maximum ngspice program size =   18.688 MB.
Current ngspice program size =   18.688 MB.

