
Note: No compatibility mode selected!


Circuit: GF180MCU library cell nor2_4 A1_to_ZN__A2=0

Doing analysis at TEMP = -18.045143 and TNOM = 27.000000

Using SPARSE 1.3 as Direct Linear Solver

Initial Transient Solution
--------------------------

Node                                   Voltage
----                                   -------
vdd                                     1.7778
a1                                           0
a2                                           0
zn                                      1.7778
xu1.net_0_0                             1.7778
xu1.net_0_1                             1.7778
xu1.net_0_2                             1.7778
xu1.net_0_3                             1.7778
vfix_a2#branch                               0
vin#branch                                   0
vdd#branch                        -1.43071e-11

 Reference value :  2.57125e-08
 Reference value :  6.55750e-08
 Reference value :  1.05815e-07
 Reference value :  1.45777e-07
 Reference value :  1.84873e-07
 Reference value :  2.26065e-07
 Reference value :  2.67835e-07
 Reference value :  3.11282e-07
No. of Data Rows : 68030

  Measurements for Transient Analysis

tphl                =  2.23758e-09 targ=  2.97163e-08 trig=  2.74787e-08
tplh                =  4.50844e-09 targ=  1.08945e-07 trig=  1.04436e-07
i_vdd_avg           =  -1.70209e-06 from=  1.00000e-08 to=  3.30002e-07
power_avg_uw        =  3.02598e+00


Total analysis time (seconds) = 2.72309

Total elapsed time (seconds) = 2.813 

Total DRAM available = 16384.000 MB.
DRAM currently available =  170.812 MB.
Maximum ngspice program size =   16.516 MB.
Current ngspice program size =   16.516 MB.

