
Note: No compatibility mode selected!


Circuit: GF180MCU library cell oai21_4 A1_to_ZN__A2=0,B=1

Doing analysis at TEMP = 61.823849 and TNOM = 27.000000

Using SPARSE 1.3 as Direct Linear Solver

Initial Transient Solution
--------------------------

Node                                   Voltage
----                                   -------
vdd                                    1.87806
a1                                           0
a2                                           0
b                                      1.87806
zn                                     1.87806
xu1.net_0                          6.18692e-09
xu1.net_1_0                            1.87806
xu1.net_1_1                            1.87806
xu1.net_1_2                            1.87806
xu1.net_1_3                            1.87806
vfix_b#branch                                0
vfix_a2#branch                               0
vin#branch                                   0
vdd#branch                        -1.92839e-11

 Reference value :  1.90214e-08
 Reference value :  4.76585e-08
 Reference value :  7.98435e-08
 Reference value :  1.10520e-07
 Reference value :  1.43295e-07
 Reference value :  1.82240e-07
 Reference value :  2.25624e-07
 Reference value :  2.73075e-07
 Reference value :  3.25915e-07
No. of Data Rows : 68032

  Measurements for Transient Analysis

tphl                =  1.29059e-09 targ=  2.80411e-08 trig=  2.67505e-08
tplh                =  2.82715e-09 targ=  1.05079e-07 trig=  1.02252e-07
i_vdd_avg           =  -9.31170e-07 from=  1.00000e-08 to=  3.30005e-07
power_avg_uw        =  1.74880e+00


Total analysis time (seconds) = 2.26316

Total elapsed time (seconds) = 2.355 

Total DRAM available = 16384.000 MB.
DRAM currently available =  267.375 MB.
Maximum ngspice program size =   18.250 MB.
Current ngspice program size =   18.250 MB.

