
Note: No compatibility mode selected!


Circuit: GF180MCU library cell aoi21_4 A1_to_ZN__A2=1,B=0

Doing analysis at TEMP = 80.884051 and TNOM = 27.000000

Using SPARSE 1.3 as Direct Linear Solver

Initial Transient Solution
--------------------------

Node                                   Voltage
----                                   -------
vdd                                    1.81377
a1                                           0
a2                                     1.81377
b                                            0
xu1.net_0_0                        1.08117e-08
zn                                     1.81377
xu1.net_0_1                        1.08117e-08
xu1.net_0_2                        1.08117e-08
xu1.net_0_3                        1.08117e-08
xu1.net_1                              1.81377
vfix_b#branch                                0
vfix_a2#branch                               0
vin#branch                                   0
vdd#branch                        -2.90508e-11

 Reference value :  2.00114e-08
 Reference value :  4.85626e-08
 Reference value :  7.68926e-08
 Reference value :  1.06618e-07
 Reference value :  1.34478e-07
 Reference value :  1.64258e-07
 Reference value :  1.91503e-07
 Reference value :  2.19073e-07
 Reference value :  2.49073e-07
 Reference value :  2.76773e-07
 Reference value :  3.06038e-07
 Reference value :  3.34613e-07
No. of Data Rows : 68032

  Measurements for Transient Analysis

tphl                =  1.18570e-09 targ=  3.00632e-08 trig=  2.88775e-08
tplh                =  3.15255e-09 targ=  1.11785e-07 trig=  1.08633e-07
i_vdd_avg           =  -6.57948e-07 from=  1.00000e-08 to=  3.30003e-07
power_avg_uw        =  1.19337e+00


Total analysis time (seconds) = 3.20056

Total elapsed time (seconds) = 3.300 

Total DRAM available = 16384.000 MB.
DRAM currently available =  136.156 MB.
Maximum ngspice program size =   18.719 MB.
Current ngspice program size =   18.719 MB.

