
Note: No compatibility mode selected!


Circuit: GF180MCU library cell inv_1 I_to_ZN

Doing analysis at TEMP = 87.302051 and TNOM = 27.000000

Using SPARSE 1.3 as Direct Linear Solver

Initial Transient Solution
--------------------------

Node                                   Voltage
----                                   -------
vdd                                    1.67146
i                                            0
zn                                     1.67146
vin#branch                                   0
vdd#branch                        -3.94552e-12

 Reference value :  1.39993e-07
No. of Data Rows : 68032

  Measurements for Transient Analysis

tphl                =  3.63780e-09 targ=  3.27654e-08 trig=  2.91276e-08
tplh                =  6.25567e-09 targ=  1.15638e-07 trig=  1.09383e-07
i_vdd_avg           =  -8.35030e-07 from=  1.00000e-08 to=  3.30003e-07
power_avg_uw        =  1.39572e+00


Total analysis time (seconds) = 0.435058

Total elapsed time (seconds) = 0.537 

Total DRAM available = 16384.000 MB.
DRAM currently available =  170.812 MB.
Maximum ngspice program size =   18.438 MB.
Current ngspice program size =   18.438 MB.

