
Note: No compatibility mode selected!


Circuit: GF180MCU library cell nor2_4 A1_to_ZN__A2=0

Doing analysis at TEMP = 8.878675 and TNOM = 27.000000

Using SPARSE 1.3 as Direct Linear Solver

Initial Transient Solution
--------------------------

Node                                   Voltage
----                                   -------
vdd                                    1.92447
a1                                           0
a2                                           0
zn                                     1.92447
xu1.net_0_0                            1.92447
xu1.net_0_1                            1.92447
xu1.net_0_2                            1.92447
xu1.net_0_3                            1.92447
vfix_a2#branch                               0
vin#branch                                   0
vdd#branch                        -1.55529e-11

 Reference value :  2.56625e-08
 Reference value :  6.79594e-08
 Reference value :  1.09049e-07
 Reference value :  1.52291e-07
 Reference value :  1.93138e-07
 Reference value :  2.33819e-07
 Reference value :  2.74711e-07
 Reference value :  3.18681e-07
No. of Data Rows : 68030

  Measurements for Transient Analysis

tphl                =  1.41379e-10 targ=  2.89748e-08 trig=  2.88335e-08
tplh                =  1.61785e-09 targ=  1.10118e-07 trig=  1.08500e-07
i_vdd_avg           =  -2.33245e-07 from=  1.00000e-08 to=  3.30001e-07
power_avg_uw        =  4.48872e-01


Total analysis time (seconds) = 2.35242

Total elapsed time (seconds) = 2.490 

Total DRAM available = 16384.000 MB.
DRAM currently available =  120.719 MB.
Maximum ngspice program size =   18.375 MB.
Current ngspice program size =   18.375 MB.

