
Note: No compatibility mode selected!


Circuit: GF180MCU library cell nand3_4 A1_to_ZN__A2=1,A3=1

Doing analysis at TEMP = 55.334414 and TNOM = 27.000000

Using SPARSE 1.3 as Direct Linear Solver

Initial Transient Solution
--------------------------

Node                                   Voltage
----                                   -------
vdd                                    1.89611
a1                                           0
a2                                     1.89611
a3                                     1.89611
xu1.net_1_3                        1.95867e-09
xu1.net_0                          3.91734e-09
xu1.net_1_2                        1.95867e-09
xu1.net_1_1                        1.95867e-09
xu1.net_1_0                        1.95867e-09
xu1.net_0_0                        3.91734e-09
zn                                     1.89611
vfix_a3#branch                               0
vfix_a2#branch                               0
vin#branch                                   0
vdd#branch                         -8.9866e-12

 Reference value :  1.93714e-08
 Reference value :  4.71449e-08
 Reference value :  7.56799e-08
 Reference value :  1.05572e-07
 Reference value :  1.34772e-07
 Reference value :  1.63587e-07
 Reference value :  1.93330e-07
 Reference value :  2.19020e-07
 Reference value :  2.48475e-07
 Reference value :  2.78017e-07
 Reference value :  3.06662e-07
 Reference value :  3.36057e-07
No. of Data Rows : 68030

  Measurements for Transient Analysis

tphl                =  1.68279e-09 targ=  2.57765e-08 trig=  2.40937e-08
tplh                =  1.88955e-09 targ=  9.61706e-08 trig=  9.42811e-08
i_vdd_avg           =  -2.22476e-06 from=  1.00000e-08 to=  3.30002e-07
power_avg_uw        =  4.21838e+00


Total analysis time (seconds) = 3.53155

Total elapsed time (seconds) = 3.614 

Total DRAM available = 16384.000 MB.
DRAM currently available =   87.578 MB.
Maximum ngspice program size =   15.719 MB.
Current ngspice program size =   15.719 MB.

