
Note: No compatibility mode selected!


Circuit: GF180MCU library cell nand2_1 A1_to_ZN__A2=1

Doing analysis at TEMP = 56.403533 and TNOM = 27.000000

Using SPARSE 1.3 as Direct Linear Solver

Initial Transient Solution
--------------------------

Node                                   Voltage
----                                   -------
vdd                                    1.78954
a1                                           0
a2                                     1.78954
xu1.net_0                          2.16744e-09
zn                                     1.78954
vfix_a2#branch                               0
vin#branch                                   0
vdd#branch                        -2.14887e-12

 Reference value :  8.84884e-08
 Reference value :  2.25568e-07
No. of Data Rows : 68032

  Measurements for Transient Analysis

tphl                =  3.53292e-09 targ=  3.34859e-08 trig=  2.99530e-08
tplh                =  5.40473e-09 targ=  1.17264e-07 trig=  1.11859e-07
i_vdd_avg           =  -5.98053e-07 from=  1.00000e-08 to=  3.30004e-07
power_avg_uw        =  1.07024e+00


Total analysis time (seconds) = 0.714681

Total elapsed time (seconds) = 0.793 

Total DRAM available = 16384.000 MB.
DRAM currently available =   87.578 MB.
Maximum ngspice program size =   16.375 MB.
Current ngspice program size =   16.375 MB.

