
Note: No compatibility mode selected!


Circuit: GF180MCU library cell oai21_4 A1_to_ZN__A2=0,B=1

Doing analysis at TEMP = 100.304510 and TNOM = 27.000000

Using SPARSE 1.3 as Direct Linear Solver

Initial Transient Solution
--------------------------

Node                                   Voltage
----                                   -------
vdd                                     1.8294
a1                                           0
a2                                           0
b                                       1.8294
zn                                      1.8294
xu1.net_0                          6.68339e-08
xu1.net_1_0                             1.8294
xu1.net_1_1                             1.8294
xu1.net_1_2                             1.8294
xu1.net_1_3                             1.8294
vfix_b#branch                                0
vfix_a2#branch                               0
vin#branch                                   0
vdd#branch                        -5.44238e-11

 Reference value :  1.74914e-08
 Reference value :  4.55783e-08
 Reference value :  7.31833e-08
 Reference value :  1.00723e-07
 Reference value :  1.28144e-07
 Reference value :  1.55339e-07
 Reference value :  1.83919e-07
 Reference value :  2.12258e-07
 Reference value :  2.41993e-07
 Reference value :  2.70669e-07
 Reference value :  2.98329e-07
 Reference value :  3.26554e-07
No. of Data Rows : 68032

  Measurements for Transient Analysis

tphl                =  7.59120e-10 targ=  2.88645e-08 trig=  2.81054e-08
tplh                =  2.45743e-09 targ=  1.08774e-07 trig=  1.06316e-07
i_vdd_avg           =  -4.69734e-07 from=  1.00000e-08 to=  3.30004e-07
power_avg_uw        =  8.59334e-01


Total analysis time (seconds) = 3.5896

Total elapsed time (seconds) = 3.778 

Total DRAM available = 16384.000 MB.
DRAM currently available =   97.609 MB.
Maximum ngspice program size =   18.109 MB.
Current ngspice program size =   18.109 MB.

