
Note: No compatibility mode selected!


Circuit: GF180MCU library cell nor2_1 A1_to_ZN__A2=0

Doing analysis at TEMP = 58.673642 and TNOM = 27.000000

Using SPARSE 1.3 as Direct Linear Solver

Initial Transient Solution
--------------------------

Node                                   Voltage
----                                   -------
vdd                                    1.73727
a1                                           0
a2                                           0
zn                                     1.73727
xu1.net_0                              1.73727
vfix_a2#branch                               0
vin#branch                                   0
vdd#branch                        -4.33848e-12

 Reference value :  8.76642e-08
 Reference value :  2.22479e-07
No. of Data Rows : 68030

  Measurements for Transient Analysis

tphl                =  3.69633e-09 targ=  3.21722e-08 trig=  2.84759e-08
tplh                =  8.12914e-09 targ=  1.15557e-07 trig=  1.07428e-07
i_vdd_avg           =  -8.08755e-07 from=  1.00000e-08 to=  3.30001e-07
power_avg_uw        =  1.40503e+00


Total analysis time (seconds) = 0.741714

Total elapsed time (seconds) = 0.817 

Total DRAM available = 16384.000 MB.
DRAM currently available =   97.609 MB.
Maximum ngspice program size =   16.047 MB.
Current ngspice program size =   16.047 MB.

