
Note: No compatibility mode selected!


Circuit: GF180MCU library cell oai21_1 A1_to_ZN__A2=0,B=1

Doing analysis at TEMP = 37.096368 and TNOM = 27.000000

Using SPARSE 1.3 as Direct Linear Solver

Initial Transient Solution
--------------------------

Node                                   Voltage
----                                   -------
vdd                                    1.66649
a1                                           0
a2                                           0
b                                      1.66649
zn                                     1.66649
xu1.net_0                          1.05797e-09
xu1.net_1                              1.66649
vfix_b#branch                                0
vfix_a2#branch                               0
vin#branch                                   0
vdd#branch                        -3.51607e-12

 Reference value :  6.20414e-08
 Reference value :  1.57350e-07
 Reference value :  2.48381e-07
No. of Data Rows : 68032

  Measurements for Transient Analysis

tphl                =  7.17514e-09 targ=  3.53246e-08 trig=  2.81495e-08
tplh                =  1.74754e-08 targ=  1.23924e-07 trig=  1.06448e-07
i_vdd_avg           =  -1.87691e-06 from=  1.00000e-08 to=  3.30000e-07
power_avg_uw        =  3.12786e+00


Total analysis time (seconds) = 0.986321

Total elapsed time (seconds) = 1.095 

Total DRAM available = 16384.000 MB.
DRAM currently available =   95.656 MB.
Maximum ngspice program size =   17.312 MB.
Current ngspice program size =   17.312 MB.

