
Note: No compatibility mode selected!


Circuit: GF180MCU library cell xor2_1 A1_to_Z__A2=0

Doing analysis at TEMP = -9.391441 and TNOM = 27.000000

Using SPARSE 1.3 as Direct Linear Solver

Initial Transient Solution
--------------------------

Node                                   Voltage
----                                   -------
vdd                                       1.71
a1                                           0
a2                                           0
xu1.i                                     1.71
z                                  3.40445e-08
xu1.net_0                          1.42381e-10
xu1.net_2                                 1.71
xu1.net_1                             0.787922
vfix_a2#branch                               0
vin#branch                                   0
vdd#branch                        -9.67919e-12

 Reference value :  4.14411e-08
 Reference value :  1.03945e-07
 Reference value :  1.61145e-07
 Reference value :  2.22356e-07
 Reference value :  2.85810e-07
No. of Data Rows : 68034

  Measurements for Transient Analysis

tplh                =  9.47536e-09 targ=  3.55972e-08 trig=  2.61218e-08
tphl                =  3.73736e-09 targ=  1.04103e-07 trig=  1.00365e-07
i_vdd_avg           =  -1.30716e-06 from=  1.00000e-08 to=  3.30005e-07
power_avg_uw        =  2.23524e+00


Total analysis time (seconds) = 1.65846

Total elapsed time (seconds) = 1.750 

Total DRAM available = 16384.000 MB.
DRAM currently available =  120.719 MB.
Maximum ngspice program size =   18.453 MB.
Current ngspice program size =   18.453 MB.

