
Note: No compatibility mode selected!


Circuit: INV seed characterization sample 6320006

Doing analysis at TEMP = -18.427500 and TNOM = 27.000000

Using SPARSE 1.3 as Direct Linear Solver

Initial Transient Solution
--------------------------

Node                                   Voltage
----                                   -------
vdd                                    1.94384
in                                           0
out                                    1.94384
vin#branch                                   0
vdd#branch                        -1.96493e-12

 Reference value :  3.92993e-08
 Reference value :  1.05487e-07
No. of Data Rows : 60047

  Measurements for Transient Analysis

tphl                =  1.92510e-10 targ=  2.38209e-09 trig=  2.18958e-09
tplh                =  2.66179e-10 targ=  2.28349e-08 trig=  2.25687e-08
i_vdd_avg           =  -4.12592e-06 from=  5.00000e-09 to=  1.10001e-07
power_avg_uw        =  8.02013e+00


Total analysis time (seconds) = 0.451275

Total elapsed time (seconds) = 0.549 

Total DRAM available = 16384.000 MB.
DRAM currently available =   73.875 MB.
Maximum ngspice program size =   15.484 MB.
Current ngspice program size =   15.484 MB.

