
Note: No compatibility mode selected!


Circuit: XOR2 seed characterization sample 6320086

Doing analysis at TEMP = 31.219500 and TNOM = 27.000000

Using SPARSE 1.3 as Direct Linear Solver

Initial Transient Solution
--------------------------

Node                                   Voltage
----                                   -------
vdd                                    1.82473
in                                           0
b                                      1.82473
abar                                   1.82473
bbar                               2.10285e-09
out                                    1.82473
vb#branch                                    0
vin#branch                         2.69108e-12
vdd#branch                        -1.25169e-11

 Reference value :  1.09534e-08
 Reference value :  3.77077e-08
 Reference value :  6.42797e-08
 Reference value :  9.59354e-08
No. of Data Rows : 60044

  Measurements for Transient Analysis

tphl                =  2.31042e-10 targ=  2.35122e-09 trig=  2.12018e-09
tplh                =  2.48142e-10 targ=  2.26087e-08 trig=  2.23605e-08
i_vdd_avg           =  -2.65536e-06 from=  5.00000e-09 to=  1.10002e-07
power_avg_uw        =  4.84531e+00


Total analysis time (seconds) = 1.06519

Total elapsed time (seconds) = 1.191 

Total DRAM available = 16384.000 MB.
DRAM currently available =  114.812 MB.
Maximum ngspice program size =   12.797 MB.
Current ngspice program size =   12.297 MB.

