
Note: No compatibility mode selected!


Circuit: NAND2 seed characterization sample 6320025

Doing analysis at TEMP = 48.231300 and TNOM = 27.000000

Using SPARSE 1.3 as Direct Linear Solver

Initial Transient Solution
--------------------------

Node                                   Voltage
----                                   -------
vdd                                    1.94978
in                                           0
out                                    1.94978
nmid                                 0.0509531
vin#branch                                   0
vdd#branch                         -2.8885e-12

 Reference value :  2.36109e-08
 Reference value :  6.48729e-08
 Reference value :  1.06523e-07
No. of Data Rows : 60044

  Measurements for Transient Analysis

tphl                =  1.46773e-10 targ=  2.25074e-09 trig=  2.10396e-09
tplh                =  7.53419e-11 targ=  2.23872e-08 trig=  2.23119e-08
i_vdd_avg           =  -2.52851e-06 from=  5.00000e-09 to=  1.10001e-07
power_avg_uw        =  4.93004e+00


Total analysis time (seconds) = 0.730726

Total elapsed time (seconds) = 0.835 

Total DRAM available = 16384.000 MB.
DRAM currently available =   92.812 MB.
Maximum ngspice program size =   14.016 MB.
Current ngspice program size =   13.625 MB.

