
Note: No compatibility mode selected!


Circuit: XOR2 seed characterization sample 6320091

Doing analysis at TEMP = -5.215400 and TNOM = 27.000000

Using SPARSE 1.3 as Direct Linear Solver

Initial Transient Solution
--------------------------

Node                                   Voltage
----                                   -------
vdd                                    1.87737
in                                           0
b                                      1.87737
abar                                   1.87737
bbar                               9.16244e-10
out                                    1.87737
vb#branch                                    0
vin#branch                         1.96553e-12
vdd#branch                        -1.14632e-11

 Reference value :  1.02788e-08
 Reference value :  3.85387e-08
 Reference value :  7.12107e-08
 Reference value :  1.01925e-07
No. of Data Rows : 60044

  Measurements for Transient Analysis

tphl                =  2.79692e-10 targ=  2.49561e-09 trig=  2.21591e-09
tplh                =  3.75555e-10 targ=  2.30233e-08 trig=  2.26477e-08
i_vdd_avg           =  -6.42499e-06 from=  5.00000e-09 to=  1.10001e-07
power_avg_uw        =  1.20621e+01


Total analysis time (seconds) = 0.986552

Total elapsed time (seconds) = 1.132 

Total DRAM available = 16384.000 MB.
DRAM currently available =   93.078 MB.
Maximum ngspice program size =   12.922 MB.
Current ngspice program size =   12.328 MB.

