
Note: No compatibility mode selected!


Circuit: INV seed characterization sample 6320022

Doing analysis at TEMP = 9.015260 and TNOM = 27.000000

Using SPARSE 1.3 as Direct Linear Solver

Initial Transient Solution
--------------------------

Node                                   Voltage
----                                   -------
vdd                                    1.78041
in                                           0
out                                    1.78041
vin#branch                                   0
vdd#branch                        -2.00401e-12

 Reference value :  3.81168e-08
 Reference value :  1.05311e-07
No. of Data Rows : 60044

  Measurements for Transient Analysis

tphl                =  2.03679e-10 targ=  2.36262e-09 trig=  2.15894e-09
tplh                =  2.27163e-10 targ=  2.27040e-08 trig=  2.24768e-08
i_vdd_avg           =  -5.39450e-06 from=  5.00000e-09 to=  1.10001e-07
power_avg_uw        =  9.60441e+00


Total analysis time (seconds) = 0.45761

Total elapsed time (seconds) = 0.554 

Total DRAM available = 16384.000 MB.
DRAM currently available =   81.969 MB.
Maximum ngspice program size =   15.703 MB.
Current ngspice program size =   15.703 MB.

