
Note: No compatibility mode selected!


Circuit: XOR2 seed characterization sample 6320085

Doing analysis at TEMP = -13.164600 and TNOM = 27.000000

Using SPARSE 1.3 as Direct Linear Solver

Initial Transient Solution
--------------------------

Node                                   Voltage
----                                   -------
vdd                                    1.76526
in                                           0
b                                      1.76526
abar                                   1.76526
bbar                               8.13615e-10
out                                    1.76526
vb#branch                                    0
vin#branch                         1.80965e-12
vdd#branch                        -1.07127e-11

 Reference value :  1.22936e-08
 Reference value :  3.56543e-08
 Reference value :  6.04216e-08
 Reference value :  8.65376e-08
 Reference value :  1.14244e-07
No. of Data Rows : 60041

  Measurements for Transient Analysis

tphl                =  2.03633e-10 targ=  2.30695e-09 trig=  2.10331e-09
tplh                =  2.15560e-10 targ=  2.25255e-08 trig=  2.23099e-08
i_vdd_avg           =  -4.85523e-06 from=  5.00000e-09 to=  1.10000e-07
power_avg_uw        =  8.57075e+00


Total analysis time (seconds) = 1.19718

Total elapsed time (seconds) = 1.308 

Total DRAM available = 16384.000 MB.
DRAM currently available =   92.812 MB.
Maximum ngspice program size =   15.203 MB.
Current ngspice program size =   15.203 MB.

