
Note: No compatibility mode selected!


Circuit: NOR2 seed characterization sample 4121043

Doing analysis at TEMP = 13.272800 and TNOM = 27.000000

Using SPARSE 1.3 as Direct Linear Solver

Initial Transient Solution
--------------------------

Node                                   Voltage
----                                   -------
vdd                                    1.83989
in                                           0
out                                    1.83989
pmid                                   1.83989
vin#branch                                   0
vdd#branch                        -4.47516e-12

 Reference value :  4.65182e-08
 Reference value :  1.06883e-07
No. of Data Rows : 60047

  Measurements for Transient Analysis

tphl                =  7.25564e-11 targ=  2.15814e-09 trig=  2.08558e-09
tplh                =  2.02868e-10 targ=  2.24596e-08 trig=  2.22568e-08
i_vdd_avg           =  -3.44448e-06 from=  5.00000e-09 to=  1.10001e-07
power_avg_uw        =  6.33747e+00


Total analysis time (seconds) = 0.477336

Total elapsed time (seconds) = 0.547 

Total DRAM available = 16384.000 MB.
DRAM currently available =  196.500 MB.
Maximum ngspice program size =   12.562 MB.
Current ngspice program size =   11.625 MB.

