
Note: No compatibility mode selected!


Circuit: NAND2 seed characterization sample 4121026

Doing analysis at TEMP = 91.067200 and TNOM = 27.000000

Using SPARSE 1.3 as Direct Linear Solver

Initial Transient Solution
--------------------------

Node                                   Voltage
----                                   -------
vdd                                     1.6862
in                                           0
out                                     1.6862
nmid                                 0.0505732
vin#branch                                   0
vdd#branch                        -4.35848e-12

 Reference value :  4.70366e-08
 Reference value :  1.08308e-07
No. of Data Rows : 60044

  Measurements for Transient Analysis

tphl                =  5.64426e-10 targ=  2.73325e-09 trig=  2.16882e-09
tplh                =  2.37651e-10 targ=  2.27441e-08 trig=  2.25065e-08
i_vdd_avg           =  -2.25469e-06 from=  5.00000e-09 to=  1.10000e-07
power_avg_uw        =  3.80185e+00


Total analysis time (seconds) = 0.472485

Total elapsed time (seconds) = 0.542 

Total DRAM available = 16384.000 MB.
DRAM currently available =  194.922 MB.
Maximum ngspice program size =   12.594 MB.
Current ngspice program size =   11.656 MB.

