
Note: No compatibility mode selected!


Circuit: NAND2 seed characterization sample 4121018

Doing analysis at TEMP = -4.993970 and TNOM = 27.000000

Using SPARSE 1.3 as Direct Linear Solver

Initial Transient Solution
--------------------------

Node                                   Voltage
----                                   -------
vdd                                    1.83238
in                                           0
out                                    1.83238
nmid                                0.00469107
vin#branch                                   0
vdd#branch                        -1.85576e-12

 Reference value :  4.75594e-08
 Reference value :  1.09204e-07
No. of Data Rows : 60044

  Measurements for Transient Analysis

tphl                =  4.60916e-10 targ=  2.51913e-09 trig=  2.05821e-09
tplh                =  2.42920e-10 targ=  2.24176e-08 trig=  2.21746e-08
i_vdd_avg           =  -3.97564e-06 from=  5.00000e-09 to=  1.10002e-07
power_avg_uw        =  7.28489e+00


Total analysis time (seconds) = 0.468874

Total elapsed time (seconds) = 0.537 

Total DRAM available = 16384.000 MB.
DRAM currently available =  209.344 MB.
Maximum ngspice program size =   12.562 MB.
Current ngspice program size =   11.625 MB.

