
Note: No compatibility mode selected!


Circuit: NOR2 seed characterization sample 4121023

Doing analysis at TEMP = 42.999700 and TNOM = 27.000000

Using SPARSE 1.3 as Direct Linear Solver

Initial Transient Solution
--------------------------

Node                                   Voltage
----                                   -------
vdd                                    1.80627
in                                           0
out                                    1.80627
pmid                                   1.80627
vin#branch                                   0
vdd#branch                        -1.03631e-11

 Reference value :  4.69159e-08
 Reference value :  1.07603e-07
No. of Data Rows : 60041

  Measurements for Transient Analysis

tphl                =  1.17555e-10 targ=  2.25299e-09 trig=  2.13543e-09
tplh                =  3.73568e-10 targ=  2.27799e-08 trig=  2.24063e-08
i_vdd_avg           =  -4.69584e-06 from=  5.00000e-09 to=  1.10001e-07
power_avg_uw        =  8.48196e+00


Total analysis time (seconds) = 0.476571

Total elapsed time (seconds) = 0.545 

Total DRAM available = 16384.000 MB.
DRAM currently available =  202.062 MB.
Maximum ngspice program size =   12.562 MB.
Current ngspice program size =   11.625 MB.

