
Note: No compatibility mode selected!


Circuit: XOR2 seed characterization sample 4121008

Doing analysis at TEMP = 18.138700 and TNOM = 27.000000

Using SPARSE 1.3 as Direct Linear Solver

Initial Transient Solution
--------------------------

Node                                   Voltage
----                                   -------
vdd                                     1.7027
in                                           0
b                                       1.7027
abar                                    1.7027
bbar                               8.76156e-10
out                                     1.7027
vb#branch                                    0
vin#branch                         2.37564e-12
vdd#branch                        -1.14572e-11

 Reference value :  2.61910e-08
 Reference value :  6.08110e-08
 Reference value :  9.73370e-08
No. of Data Rows : 60044

  Measurements for Transient Analysis

tphl                =  1.43840e-10 targ=  2.21183e-09 trig=  2.06799e-09
tplh                =  1.79569e-10 targ=  2.23835e-08 trig=  2.22040e-08
i_vdd_avg           =  -3.05745e-06 from=  5.00000e-09 to=  1.10001e-07
power_avg_uw        =  5.20591e+00


Total analysis time (seconds) = 0.810768

Total elapsed time (seconds) = 0.885 

Total DRAM available = 16384.000 MB.
DRAM currently available =  136.422 MB.
Maximum ngspice program size =   12.578 MB.
Current ngspice program size =   11.750 MB.

