
Note: No compatibility mode selected!


Circuit: INV seed characterization sample 4121029

Doing analysis at TEMP = 41.185800 and TNOM = 27.000000

Using SPARSE 1.3 as Direct Linear Solver

Initial Transient Solution
--------------------------

Node                                   Voltage
----                                   -------
vdd                                    1.75866
in                                           0
out                                    1.75866
vin#branch                                   0
vdd#branch                        -3.77987e-12

 Reference value :  7.03130e-08
No. of Data Rows : 60047

  Measurements for Transient Analysis

tphl                =  1.82469e-10 targ=  2.33497e-09 trig=  2.15250e-09
tplh                =  2.26950e-10 targ=  2.26844e-08 trig=  2.24575e-08
i_vdd_avg           =  -3.20975e-06 from=  5.00000e-09 to=  1.10001e-07
power_avg_uw        =  5.64486e+00


Total analysis time (seconds) = 0.297688

Total elapsed time (seconds) = 0.372 

Total DRAM available = 16384.000 MB.
DRAM currently available =  205.797 MB.
Maximum ngspice program size =   12.562 MB.
Current ngspice program size =   11.594 MB.

