
Note: No compatibility mode selected!


Circuit: INV seed characterization sample 4121001

Doing analysis at TEMP = 93.225800 and TNOM = 27.000000

Using SPARSE 1.3 as Direct Linear Solver

Initial Transient Solution
--------------------------

Node                                   Voltage
----                                   -------
vdd                                    1.81876
in                                           0
out                                    1.81876
vin#branch                                   0
vdd#branch                        -5.38316e-11

 Reference value :  7.65505e-08
No. of Data Rows : 60041

  Measurements for Transient Analysis

tphl                =  1.70001e-10 targ=  2.33438e-09 trig=  2.16438e-09
tplh                =  1.81759e-10 targ=  2.26749e-08 trig=  2.24931e-08
i_vdd_avg           =  -2.70843e-06 from=  5.00000e-09 to=  1.10001e-07
power_avg_uw        =  4.92599e+00


Total analysis time (seconds) = 0.281818

Total elapsed time (seconds) = 0.348 

Total DRAM available = 16384.000 MB.
DRAM currently available =  163.406 MB.
Maximum ngspice program size =   12.562 MB.
Current ngspice program size =   11.656 MB.

