
Note: No compatibility mode selected!


Circuit: INV seed characterization sample 4121041

Doing analysis at TEMP = 56.300400 and TNOM = 27.000000

Using SPARSE 1.3 as Direct Linear Solver

Initial Transient Solution
--------------------------

Node                                   Voltage
----                                   -------
vdd                                    1.81257
in                                           0
out                                    1.81257
vin#branch                                   0
vdd#branch                        -3.33836e-12

 Reference value :  7.41554e-08
No. of Data Rows : 60047

  Measurements for Transient Analysis

tphl                =  6.52200e-10 targ=  2.87680e-09 trig=  2.22460e-09
tplh                =  9.09178e-10 targ=  2.35830e-08 trig=  2.26738e-08
i_vdd_avg           =  -5.23828e-06 from=  5.00000e-09 to=  1.10001e-07
power_avg_uw        =  9.49475e+00


Total analysis time (seconds) = 0.29312

Total elapsed time (seconds) = 0.362 

Total DRAM available = 16384.000 MB.
DRAM currently available =  196.500 MB.
Maximum ngspice program size =   12.609 MB.
Current ngspice program size =   11.672 MB.

