
Note: No compatibility mode selected!


Circuit: NAND2 seed characterization sample 4121002

Doing analysis at TEMP = 13.403700 and TNOM = 27.000000

Using SPARSE 1.3 as Direct Linear Solver

Initial Transient Solution
--------------------------

Node                                   Voltage
----                                   -------
vdd                                    1.95866
in                                           0
out                                    1.95866
nmid                                  0.029023
vin#branch                                   0
vdd#branch                        -2.07037e-12

 Reference value :  4.93111e-08
 Reference value :  1.13109e-07
No. of Data Rows : 60044

  Measurements for Transient Analysis

tphl                =  2.13561e-10 targ=  2.26061e-09 trig=  2.04705e-09
tplh                =  8.75647e-11 targ=  2.22287e-08 trig=  2.21411e-08
i_vdd_avg           =  -4.71268e-06 from=  5.00000e-09 to=  1.10001e-07
power_avg_uw        =  9.23054e+00


Total analysis time (seconds) = 0.45335

Total elapsed time (seconds) = 0.520 

Total DRAM available = 16384.000 MB.
DRAM currently available =  163.406 MB.
Maximum ngspice program size =   12.562 MB.
Current ngspice program size =   11.656 MB.

