
Note: No compatibility mode selected!


Circuit: XOR2 seed characterization sample 4121048

Doing analysis at TEMP = 32.289300 and TNOM = 27.000000

Using SPARSE 1.3 as Direct Linear Solver

Initial Transient Solution
--------------------------

Node                                   Voltage
----                                   -------
vdd                                    1.67775
in                                           0
b                                      1.67775
abar                                   1.67775
bbar                               1.73367e-09
out                                    1.67775
vb#branch                                    0
vin#branch                         2.73498e-12
vdd#branch                        -1.19787e-11

 Reference value :  2.67235e-08
 Reference value :  6.15782e-08
 Reference value :  9.86722e-08
No. of Data Rows : 60047

  Measurements for Transient Analysis

tphl                =  3.41929e-10 targ=  2.57355e-09 trig=  2.23162e-09
tplh                =  3.71426e-10 targ=  2.30663e-08 trig=  2.26949e-08
i_vdd_avg           =  -3.51651e-06 from=  5.00000e-09 to=  1.10001e-07
power_avg_uw        =  5.89983e+00


Total analysis time (seconds) = 0.801406

Total elapsed time (seconds) = 0.871 

Total DRAM available = 16384.000 MB.
DRAM currently available =  187.516 MB.
Maximum ngspice program size =   12.609 MB.
Current ngspice program size =   11.906 MB.

