
Note: No compatibility mode selected!


Circuit: NOR2 seed characterization sample 4404043

Doing analysis at TEMP = 27.813400 and TNOM = 27.000000

Using SPARSE 1.3 as Direct Linear Solver

Initial Transient Solution
--------------------------

Node                                   Voltage
----                                   -------
vdd                                    1.72703
in                                           0
out                                    1.72703
pmid                                   1.72703
vin#branch                                   0
vdd#branch                        -8.38093e-12

 Reference value :  4.54612e-08
 Reference value :  1.05219e-07
No. of Data Rows : 60044

  Measurements for Transient Analysis

tphl                =  3.10153e-10 targ=  2.35227e-09 trig=  2.04211e-09
tplh                =  1.31203e-09 targ=  2.34384e-08 trig=  2.21263e-08
i_vdd_avg           =  -4.17872e-06 from=  5.00000e-09 to=  1.10001e-07
power_avg_uw        =  7.21677e+00


Total analysis time (seconds) = 0.482967

Total elapsed time (seconds) = 0.555 

Total DRAM available = 16384.000 MB.
DRAM currently available =  251.547 MB.
Maximum ngspice program size =   12.562 MB.
Current ngspice program size =   11.906 MB.

