
Note: No compatibility mode selected!


Circuit: NAND2 seed characterization sample 4404046

Doing analysis at TEMP = 17.473700 and TNOM = 27.000000

Using SPARSE 1.3 as Direct Linear Solver

Initial Transient Solution
--------------------------

Node                                   Voltage
----                                   -------
vdd                                    1.75809
in                                           0
out                                    1.75809
nmid                                 0.0506672
vin#branch                                   0
vdd#branch                         -2.8215e-12

 Reference value :  4.69957e-08
 Reference value :  1.08128e-07
No. of Data Rows : 60041

  Measurements for Transient Analysis

tphl                =  1.92151e-10 targ=  2.33350e-09 trig=  2.14135e-09
tplh                =  1.25996e-10 targ=  2.25500e-08 trig=  2.24240e-08
i_vdd_avg           =  -3.21870e-06 from=  5.00000e-09 to=  1.10000e-07
power_avg_uw        =  5.65876e+00


Total analysis time (seconds) = 0.471413

Total elapsed time (seconds) = 0.541 

Total DRAM available = 16384.000 MB.
DRAM currently available =  245.766 MB.
Maximum ngspice program size =   12.562 MB.
Current ngspice program size =   11.688 MB.

