
Note: No compatibility mode selected!


Circuit: INV seed characterization sample 4404005

Doing analysis at TEMP = 98.384600 and TNOM = 27.000000

Using SPARSE 1.3 as Direct Linear Solver

Initial Transient Solution
--------------------------

Node                                   Voltage
----                                   -------
vdd                                    1.89491
in                                           0
out                                    1.89491
vin#branch                                   0
vdd#branch                        -1.05167e-09

 Reference value :  7.29702e-08
No. of Data Rows : 60041

  Measurements for Transient Analysis

tphl                =  1.12322e-10 targ=  2.26463e-09 trig=  2.15231e-09
tplh                =  1.31165e-10 targ=  2.25881e-08 trig=  2.24569e-08
i_vdd_avg           =  -3.02496e-06 from=  5.00000e-09 to=  1.10000e-07
power_avg_uw        =  5.73202e+00


Total analysis time (seconds) = 0.294259

Total elapsed time (seconds) = 0.365 

Total DRAM available = 16384.000 MB.
DRAM currently available =  243.047 MB.
Maximum ngspice program size =   12.562 MB.
Current ngspice program size =   11.781 MB.

