
Note: No compatibility mode selected!


Circuit: XOR2 seed characterization sample 4404048

Doing analysis at TEMP = -9.912540 and TNOM = 27.000000

Using SPARSE 1.3 as Direct Linear Solver

Initial Transient Solution
--------------------------

Node                                   Voltage
----                                   -------
vdd                                    1.80516
in                                           0
b                                      1.80516
abar                                   1.80516
bbar                               2.59016e-09
out                                    1.80516
vb#branch                                    0
vin#branch                         2.09543e-12
vdd#branch                        -1.13758e-11

 Reference value :  2.62264e-08
 Reference value :  6.08557e-08
 Reference value :  9.76697e-08
No. of Data Rows : 60041

  Measurements for Transient Analysis

tphl                =  3.71079e-10 targ=  2.54843e-09 trig=  2.17735e-09
tplh                =  4.16332e-10 targ=  2.29484e-08 trig=  2.25321e-08
i_vdd_avg           =  -3.95406e-06 from=  5.00000e-09 to=  1.10000e-07
power_avg_uw        =  7.13772e+00


Total analysis time (seconds) = 0.809474

Total elapsed time (seconds) = 0.883 

Total DRAM available = 16384.000 MB.
DRAM currently available =  252.250 MB.
Maximum ngspice program size =   13.141 MB.
Current ngspice program size =   13.141 MB.

