
Note: No compatibility mode selected!


Circuit: NOR2 seed characterization sample 4404027

Doing analysis at TEMP = 30.906700 and TNOM = 27.000000

Using SPARSE 1.3 as Direct Linear Solver

Initial Transient Solution
--------------------------

Node                                   Voltage
----                                   -------
vdd                                    1.94159
in                                           0
out                                    1.94159
pmid                                   1.94159
vin#branch                                   0
vdd#branch                        -6.09353e-11

 Reference value :  4.60336e-08
 Reference value :  1.06122e-07
No. of Data Rows : 60041

  Measurements for Transient Analysis

tphl                =  8.64409e-11 targ=  2.19075e-09 trig=  2.10431e-09
tplh                =  2.46986e-10 targ=  2.25599e-08 trig=  2.23129e-08
i_vdd_avg           =  -6.21998e-06 from=  5.00000e-09 to=  1.10000e-07
power_avg_uw        =  1.20766e+01


Total analysis time (seconds) = 0.481589

Total elapsed time (seconds) = 0.552 

Total DRAM available = 16384.000 MB.
DRAM currently available =  264.469 MB.
Maximum ngspice program size =   12.562 MB.
Current ngspice program size =   11.875 MB.

