
Note: No compatibility mode selected!


Circuit: NAND2 seed characterization sample 4404030

Doing analysis at TEMP = 55.795500 and TNOM = 27.000000

Using SPARSE 1.3 as Direct Linear Solver

Initial Transient Solution
--------------------------

Node                                   Voltage
----                                   -------
vdd                                    1.74709
in                                           0
out                                    1.74709
nmid                                 0.0546242
vin#branch                                   0
vdd#branch                        -1.57182e-11

 Reference value :  4.63047e-08
 Reference value :  1.07282e-07
No. of Data Rows : 60044

  Measurements for Transient Analysis

tphl                =  3.18386e-10 targ=  2.52222e-09 trig=  2.20383e-09
tplh                =  1.66089e-10 targ=  2.27776e-08 trig=  2.26115e-08
i_vdd_avg           =  -5.07885e-06 from=  5.00000e-09 to=  1.10000e-07
power_avg_uw        =  8.87320e+00


Total analysis time (seconds) = 0.473593

Total elapsed time (seconds) = 0.545 

Total DRAM available = 16384.000 MB.
DRAM currently available =  257.062 MB.
Maximum ngspice program size =   12.562 MB.
Current ngspice program size =   11.625 MB.

