
Note: No compatibility mode selected!


Circuit: XOR2 seed characterization sample 4404036

Doing analysis at TEMP = 96.834200 and TNOM = 27.000000

Using SPARSE 1.3 as Direct Linear Solver

Initial Transient Solution
--------------------------

Node                                   Voltage
----                                   -------
vdd                                    1.88675
in                                           0
b                                      1.88675
abar                                   1.88675
bbar                               8.12207e-08
out                                    1.88675
vb#branch                                    0
vin#branch                         8.80778e-10
vdd#branch                        -1.57378e-09

 Reference value :  2.62993e-08
 Reference value :  6.08851e-08
 Reference value :  9.79631e-08
No. of Data Rows : 60044

  Measurements for Transient Analysis

tphl                =  1.58868e-10 targ=  2.17694e-09 trig=  2.01807e-09
tplh                =  1.51688e-10 targ=  2.22059e-08 trig=  2.20542e-08
i_vdd_avg           =  -3.63797e-06 from=  5.00000e-09 to=  1.10001e-07
power_avg_uw        =  6.86393e+00


Total analysis time (seconds) = 0.805271

Total elapsed time (seconds) = 0.876 

Total DRAM available = 16384.000 MB.
DRAM currently available =  279.766 MB.
Maximum ngspice program size =   12.578 MB.
Current ngspice program size =   12.391 MB.

