
Note: No compatibility mode selected!


Circuit: XOR2 seed characterization sample 4404040

Doing analysis at TEMP = 42.285300 and TNOM = 27.000000

Using SPARSE 1.3 as Direct Linear Solver

Initial Transient Solution
--------------------------

Node                                   Voltage
----                                   -------
vdd                                    1.76098
in                                           0
b                                      1.76098
abar                                   1.76098
bbar                               7.02452e-09
out                                    1.76098
vb#branch                                    0
vin#branch                         1.15504e-11
vdd#branch                        -2.89799e-11

 Reference value :  2.63678e-08
 Reference value :  6.05854e-08
 Reference value :  9.74134e-08
No. of Data Rows : 60044

  Measurements for Transient Analysis

tphl                =  3.22675e-10 targ=  2.37886e-09 trig=  2.05619e-09
tplh                =  3.12986e-10 targ=  2.24816e-08 trig=  2.21686e-08
i_vdd_avg           =  -2.23931e-06 from=  5.00000e-09 to=  1.10002e-07
power_avg_uw        =  3.94337e+00


Total analysis time (seconds) = 0.809383

Total elapsed time (seconds) = 0.881 

Total DRAM available = 16384.000 MB.
DRAM currently available =  261.844 MB.
Maximum ngspice program size =   12.562 MB.
Current ngspice program size =   12.031 MB.

