
Note: No compatibility mode selected!


Circuit: INV seed characterization sample 4404025

Doing analysis at TEMP = 41.772600 and TNOM = 27.000000

Using SPARSE 1.3 as Direct Linear Solver

Initial Transient Solution
--------------------------

Node                                   Voltage
----                                   -------
vdd                                    1.85935
in                                           0
out                                    1.85935
vin#branch                                   0
vdd#branch                        -1.64011e-11

 Reference value :  7.38602e-08
No. of Data Rows : 60041

  Measurements for Transient Analysis

tphl                =  3.25311e-10 targ=  2.44062e-09 trig=  2.11531e-09
tplh                =  3.06498e-10 targ=  2.26524e-08 trig=  2.23459e-08
i_vdd_avg           =  -5.62966e-06 from=  5.00000e-09 to=  1.10000e-07
power_avg_uw        =  1.04675e+01


Total analysis time (seconds) = 0.292735

Total elapsed time (seconds) = 0.362 

Total DRAM available = 16384.000 MB.
DRAM currently available =  252.219 MB.
Maximum ngspice program size =   12.562 MB.
Current ngspice program size =   11.625 MB.

