
Note: No compatibility mode selected!


Circuit: NAND2 seed characterization sample 4404006

Doing analysis at TEMP = 44.718200 and TNOM = 27.000000

Using SPARSE 1.3 as Direct Linear Solver

Initial Transient Solution
--------------------------

Node                                   Voltage
----                                   -------
vdd                                    1.92062
in                                           0
out                                    1.92062
nmid                                 0.0569884
vin#branch                                   0
vdd#branch                        -4.12849e-12

 Reference value :  4.59238e-08
 Reference value :  1.06483e-07
No. of Data Rows : 60041

  Measurements for Transient Analysis

tphl                =  3.65217e-10 targ=  2.38062e-09 trig=  2.01541e-09
tplh                =  1.09027e-10 targ=  2.21552e-08 trig=  2.20462e-08
i_vdd_avg           =  -3.75995e-06 from=  5.00000e-09 to=  1.10001e-07
power_avg_uw        =  7.22144e+00


Total analysis time (seconds) = 0.478501

Total elapsed time (seconds) = 0.549 

Total DRAM available = 16384.000 MB.
DRAM currently available =  233.406 MB.
Maximum ngspice program size =   12.562 MB.
Current ngspice program size =   11.875 MB.

