
Note: No compatibility mode selected!


Circuit: INV seed characterization sample 4404033

Doing analysis at TEMP = 91.035000 and TNOM = 27.000000

Using SPARSE 1.3 as Direct Linear Solver

Initial Transient Solution
--------------------------

Node                                   Voltage
----                                   -------
vdd                                    1.62743
in                                           0
out                                    1.62743
vin#branch                                   0
vdd#branch                        -5.07806e-10

 Reference value :  7.35071e-08
No. of Data Rows : 60044

  Measurements for Transient Analysis

tphl                =  1.69955e-10 targ=  2.25899e-09 trig=  2.08903e-09
tplh                =  2.24386e-10 targ=  2.24915e-08 trig=  2.22671e-08
i_vdd_avg           =  -4.29564e-06 from=  5.00000e-09 to=  1.10001e-07
power_avg_uw        =  6.99086e+00


Total analysis time (seconds) = 0.293396

Total elapsed time (seconds) = 0.362 

Total DRAM available = 16384.000 MB.
DRAM currently available =  248.453 MB.
Maximum ngspice program size =   12.562 MB.
Current ngspice program size =   11.719 MB.

