
Note: No compatibility mode selected!


Circuit: INV seed characterization sample 4404017

Doing analysis at TEMP = -13.407500 and TNOM = 27.000000

Using SPARSE 1.3 as Direct Linear Solver

Initial Transient Solution
--------------------------

Node                                   Voltage
----                                   -------
vdd                                    1.74978
in                                           0
out                                    1.74978
vin#branch                                   0
vdd#branch                        -1.87411e-12

 Reference value :  7.31991e-08
No. of Data Rows : 60047

  Measurements for Transient Analysis

tphl                =  2.74815e-10 targ=  2.30034e-09 trig=  2.02552e-09
tplh                =  2.48240e-10 targ=  2.23248e-08 trig=  2.20766e-08
i_vdd_avg           =  -3.84210e-06 from=  5.00000e-09 to=  1.10001e-07
power_avg_uw        =  6.72282e+00


Total analysis time (seconds) = 0.296703

Total elapsed time (seconds) = 0.365 

Total DRAM available = 16384.000 MB.
DRAM currently available =  248.922 MB.
Maximum ngspice program size =   12.562 MB.
Current ngspice program size =   11.750 MB.

