
Note: No compatibility mode selected!


Circuit: XOR2 seed characterization sample 4404004

Doing analysis at TEMP = 23.056500 and TNOM = 27.000000

Using SPARSE 1.3 as Direct Linear Solver

Initial Transient Solution
--------------------------

Node                                   Voltage
----                                   -------
vdd                                    1.62313
in                                           0
b                                      1.62313
abar                                   1.62313
bbar                               6.43938e-09
out                                    1.62313
vb#branch                                    0
vin#branch                          3.5156e-12
vdd#branch                        -1.34086e-11

 Reference value :  2.52227e-08
 Reference value :  5.93208e-08
 Reference value :  9.53188e-08
No. of Data Rows : 60044

  Measurements for Transient Analysis

tphl                =  8.92054e-10 targ=  3.12598e-09 trig=  2.23392e-09
tplh                =  9.48407e-10 targ=  2.36502e-08 trig=  2.27018e-08
i_vdd_avg           =  -3.84013e-06 from=  5.00000e-09 to=  1.10001e-07
power_avg_uw        =  6.23302e+00


Total analysis time (seconds) = 0.821642

Total elapsed time (seconds) = 0.897 

Total DRAM available = 16384.000 MB.
DRAM currently available =  243.047 MB.
Maximum ngspice program size =   12.594 MB.
Current ngspice program size =   11.938 MB.

