
Note: No compatibility mode selected!


Circuit: XOR2 seed characterization sample 4404008

Doing analysis at TEMP = 87.708400 and TNOM = 27.000000

Using SPARSE 1.3 as Direct Linear Solver

Initial Transient Solution
--------------------------

Node                                   Voltage
----                                   -------
vdd                                    1.92173
in                                           0
b                                      1.92173
abar                                   1.92173
bbar                               3.55859e-08
out                                    1.92173
vb#branch                                    0
vin#branch                         1.06266e-09
vdd#branch                        -1.90571e-09

 Reference value :  2.61597e-08
 Reference value :  6.06054e-08
 Reference value :  9.72094e-08
No. of Data Rows : 60044

  Measurements for Transient Analysis

tphl                =  1.78060e-10 targ=  2.39424e-09 trig=  2.21618e-09
tplh                =  2.13210e-10 targ=  2.28618e-08 trig=  2.26485e-08
i_vdd_avg           =  -4.87895e-06 from=  5.00000e-09 to=  1.10002e-07
power_avg_uw        =  9.37602e+00


Total analysis time (seconds) = 0.809927

Total elapsed time (seconds) = 0.882 

Total DRAM available = 16384.000 MB.
DRAM currently available =  276.156 MB.
Maximum ngspice program size =   12.578 MB.
Current ngspice program size =   12.078 MB.

