
Note: No compatibility mode selected!


Circuit: GF180MCU library cell mux2_4 I0_to_Z__I1=0,S=0

Doing analysis at TEMP = 25.749782 and TNOM = 27.000000

Using SPARSE 1.3 as Direct Linear Solver

Initial Transient Solution
--------------------------

Node                                   Voltage
----                                   -------
vdd                                    1.78156
i0                                           0
i1                                           0
s                                            0
xu1.int04                              1.78156
z                                  8.18732e-09
xu1.net_1                            0.0365877
xu1.net_3                              1.29925
xu1.sel1_n                             1.78156
xu1.net_0                              1.78156
xu1.net_2                              1.78156
vfix_s#branch                                0
vfix_i1#branch                               0
vin#branch                                   0
vdd#branch                        -1.76855e-11

 Reference value :  3.71901e-08
 Reference value :  7.85151e-08
 Reference value :  1.19758e-07
 Reference value :  1.59858e-07
 Reference value :  1.97770e-07
 Reference value :  2.34170e-07
 Reference value :  2.72233e-07
 Reference value :  3.11528e-07
No. of Data Rows : 68034

  Measurements for Transient Analysis

tplh                =  1.72812e-09 targ=  2.80194e-08 trig=  2.62913e-08
tphl                =  2.28539e-09 targ=  1.03159e-07 trig=  1.00874e-07
i_vdd_avg           =  -1.90077e-06 from=  1.00000e-08 to=  3.30003e-07
power_avg_uw        =  3.38633e+00


Total analysis time (seconds) = 2.67389

Total elapsed time (seconds) = 2.741 

Total DRAM available = 16384.000 MB.
DRAM currently available =   87.297 MB.
Maximum ngspice program size =   14.938 MB.
Current ngspice program size =   14.938 MB.

