
Note: No compatibility mode selected!


Circuit: GF180MCU library cell inv_4 I_to_ZN

Doing analysis at TEMP = 53.325109 and TNOM = 27.000000

Using SPARSE 1.3 as Direct Linear Solver

Initial Transient Solution
--------------------------

Node                                   Voltage
----                                   -------
vdd                                    1.85144
i                                            0
zn                                     1.85144
vin#branch                                   0
vdd#branch                        -3.44716e-11

 Reference value :  7.39969e-08
 Reference value :  1.77931e-07
 Reference value :  2.80051e-07
No. of Data Rows : 68032

  Measurements for Transient Analysis

tphl                =  1.09356e-09 targ=  2.77033e-08 trig=  2.66097e-08
tplh                =  2.23969e-09 targ=  1.04069e-07 trig=  1.01829e-07
i_vdd_avg           =  -2.08469e-06 from=  1.00000e-08 to=  3.30001e-07
power_avg_uw        =  3.85967e+00


Total analysis time (seconds) = 1.07508

Total elapsed time (seconds) = 1.125 

Total DRAM available = 16384.000 MB.
DRAM currently available =   79.422 MB.
Maximum ngspice program size =   15.516 MB.
Current ngspice program size =   15.516 MB.

