
Note: No compatibility mode selected!


Circuit: GF180MCU library cell nor2_1 A1_to_ZN__A2=0

Doing analysis at TEMP = 28.004515 and TNOM = 27.000000

Using SPARSE 1.3 as Direct Linear Solver

Initial Transient Solution
--------------------------

Node                                   Voltage
----                                   -------
vdd                                    1.91335
a1                                           0
a2                                           0
zn                                     1.91335
xu1.net_0                              1.91335
vfix_a2#branch                               0
vin#branch                                   0
vdd#branch                         -3.8507e-12

 Reference value :  1.03874e-07
 Reference value :  2.49218e-07
No. of Data Rows : 68032

  Measurements for Transient Analysis

tphl                =  4.25121e-09 targ=  2.89741e-08 trig=  2.47229e-08
tplh                =  1.42562e-08 targ=  1.10425e-07 trig=  9.61688e-08
i_vdd_avg           =  -1.66028e-06 from=  1.00000e-08 to=  3.30004e-07
power_avg_uw        =  3.17670e+00


Total analysis time (seconds) = 0.76304

Total elapsed time (seconds) = 0.836 

Total DRAM available = 16384.000 MB.
DRAM currently available =   84.797 MB.
Maximum ngspice program size =   16.891 MB.
Current ngspice program size =   16.891 MB.

