
Note: No compatibility mode selected!


Circuit: GF180MCU library cell nor2_1 A1_to_ZN__A2=0

Doing analysis at TEMP = 73.428416 and TNOM = 27.000000

Using SPARSE 1.3 as Direct Linear Solver

Initial Transient Solution
--------------------------

Node                                   Voltage
----                                   -------
vdd                                    1.88652
a1                                           0
a2                                           0
zn                                     1.88652
xu1.net_0                              1.88652
vfix_a2#branch                               0
vin#branch                                   0
vdd#branch                         -3.9265e-12

 Reference value :  1.06152e-07
 Reference value :  2.65222e-07
No. of Data Rows : 68032

  Measurements for Transient Analysis

tphl                =  7.06473e-09 targ=  3.50419e-08 trig=  2.79772e-08
tplh                =  2.02550e-08 targ=  1.26187e-07 trig=  1.05932e-07
i_vdd_avg           =  -1.95694e-06 from=  1.00000e-08 to=  3.30001e-07
power_avg_uw        =  3.69181e+00


Total analysis time (seconds) = 0.784706

Total elapsed time (seconds) = 0.871 

Total DRAM available = 16384.000 MB.
DRAM currently available =  102.938 MB.
Maximum ngspice program size =   16.625 MB.
Current ngspice program size =   16.625 MB.

