
Note: No compatibility mode selected!


Circuit: GF180MCU library cell nor2_4 A1_to_ZN__A2=0

Doing analysis at TEMP = 83.065519 and TNOM = 27.000000

Using SPARSE 1.3 as Direct Linear Solver

Initial Transient Solution
--------------------------

Node                                   Voltage
----                                   -------
vdd                                    1.69611
a1                                           0
a2                                           0
zn                                     1.69611
xu1.net_0_0                            1.69611
xu1.net_0_1                            1.69611
xu1.net_0_2                            1.69611
xu1.net_0_3                            1.69611
vfix_a2#branch                               0
vin#branch                                   0
vdd#branch                        -2.84692e-11

 Reference value :  3.40525e-08
 Reference value :  7.97757e-08
 Reference value :  1.27309e-07
 Reference value :  1.73584e-07
 Reference value :  2.19891e-07
 Reference value :  2.69101e-07
 Reference value :  3.18174e-07
No. of Data Rows : 68034

  Measurements for Transient Analysis

tphl                =  3.46764e-09 targ=  3.33543e-08 trig=  2.98866e-08
tplh                =  7.27644e-09 targ=  1.18936e-07 trig=  1.11660e-07
i_vdd_avg           =  -2.15267e-06 from=  1.00000e-08 to=  3.30004e-07
power_avg_uw        =  3.65116e+00


Total analysis time (seconds) = 2.34756

Total elapsed time (seconds) = 2.419 

Total DRAM available = 16384.000 MB.
DRAM currently available =  131.219 MB.
Maximum ngspice program size =   15.906 MB.
Current ngspice program size =   15.906 MB.

