
Note: No compatibility mode selected!


Circuit: GF180MCU library cell nand2_1 A1_to_ZN__A2=1

Doing analysis at TEMP = -1.820733 and TNOM = 27.000000

Using SPARSE 1.3 as Direct Linear Solver

Initial Transient Solution
--------------------------

Node                                   Voltage
----                                   -------
vdd                                    1.85201
a1                                           0
a2                                     1.85201
xu1.net_0                          5.90577e-13
zn                                     1.85201
vfix_a2#branch                               0
vin#branch                                   0
vdd#branch                        -1.86209e-12

 Reference value :  1.33681e-07
 Reference value :  2.86066e-07
No. of Data Rows : 68032

  Measurements for Transient Analysis

tphl                =  1.65740e-09 targ=  2.83596e-08 trig=  2.67022e-08
tplh                =  2.48248e-09 targ=  1.04589e-07 trig=  1.02107e-07
i_vdd_avg           =  -1.52007e-07 from=  1.00000e-08 to=  3.30001e-07
power_avg_uw        =  2.81517e-01


Total analysis time (seconds) = 0.67953

Total elapsed time (seconds) = 0.743 

Total DRAM available = 16384.000 MB.
DRAM currently available =  119.094 MB.
Maximum ngspice program size =   17.094 MB.
Current ngspice program size =   17.094 MB.

