
Note: No compatibility mode selected!


Circuit: GF180MCU library cell mux2_4 I0_to_Z__I1=0,S=0

Doing analysis at TEMP = 47.751953 and TNOM = 27.000000

Using SPARSE 1.3 as Direct Linear Solver

Initial Transient Solution
--------------------------

Node                                   Voltage
----                                   -------
vdd                                    1.88457
i0                                           0
i1                                           0
s                                            0
xu1.int04                              1.88457
z                                  8.77823e-09
xu1.net_1                            0.0457226
xu1.net_3                              1.40336
xu1.sel1_n                             1.88457
xu1.net_0                              1.88457
xu1.net_2                              1.88457
vfix_s#branch                                0
vfix_i1#branch                               0
vin#branch                                   0
vdd#branch                         -2.6245e-11

 Reference value :  2.74525e-08
 Reference value :  6.66277e-08
 Reference value :  1.07133e-07
 Reference value :  1.49158e-07
 Reference value :  1.87733e-07
 Reference value :  2.24523e-07
 Reference value :  2.64753e-07
 Reference value :  3.05313e-07
No. of Data Rows : 68032

  Measurements for Transient Analysis

tplh                =  1.10879e-09 targ=  3.03889e-08 trig=  2.92801e-08
tphl                =  2.67985e-09 targ=  1.12520e-07 trig=  1.09840e-07
i_vdd_avg           =  -1.06852e-06 from=  1.00000e-08 to=  3.30003e-07
power_avg_uw        =  2.01371e+00


Total analysis time (seconds) = 2.76488

Total elapsed time (seconds) = 2.839 

Total DRAM available = 16384.000 MB.
DRAM currently available =   87.297 MB.
Maximum ngspice program size =   16.672 MB.
Current ngspice program size =   16.672 MB.

