
Note: No compatibility mode selected!


Circuit: GF180MCU library cell aoi21_4 A1_to_ZN__A2=1,B=0

Doing analysis at TEMP = -13.957399 and TNOM = 27.000000

Using SPARSE 1.3 as Direct Linear Solver

Initial Transient Solution
--------------------------

Node                                   Voltage
----                                   -------
vdd                                    1.87118
a1                                           0
a2                                     1.87118
b                                            0
xu1.net_0_0                        3.90904e-12
zn                                     1.87118
xu1.net_0_1                        3.90814e-12
xu1.net_0_2                        3.90904e-12
xu1.net_0_3                        3.90814e-12
xu1.net_1                              1.87118
vfix_b#branch                                0
vfix_a2#branch                               0
vin#branch                                   0
vdd#branch                        -1.50575e-11

 Reference value :  2.19414e-08
 Reference value :  5.30385e-08
 Reference value :  8.41985e-08
 Reference value :  1.14915e-07
 Reference value :  1.47105e-07
 Reference value :  1.79580e-07
 Reference value :  2.10384e-07
 Reference value :  2.40464e-07
 Reference value :  2.71010e-07
 Reference value :  3.03495e-07
 Reference value :  3.31920e-07
No. of Data Rows : 68032

  Measurements for Transient Analysis

tphl                =  2.63204e-10 targ=  2.45062e-08 trig=  2.42430e-08
tplh                =  5.17200e-10 targ=  9.52462e-08 trig=  9.47290e-08
i_vdd_avg           =  -2.94336e-07 from=  1.00000e-08 to=  3.30005e-07
power_avg_uw        =  5.50757e-01


Total analysis time (seconds) = 3.46739

Total elapsed time (seconds) = 3.541 

Total DRAM available = 16384.000 MB.
DRAM currently available =  117.125 MB.
Maximum ngspice program size =   15.969 MB.
Current ngspice program size =   15.969 MB.

