
Note: No compatibility mode selected!


Circuit: GF180MCU library cell nand3_4 A1_to_ZN__A2=1,A3=1

Doing analysis at TEMP = 58.612833 and TNOM = 27.000000

Using SPARSE 1.3 as Direct Linear Solver

Initial Transient Solution
--------------------------

Node                                   Voltage
----                                   -------
vdd                                    1.72557
a1                                           0
a2                                     1.72557
a3                                     1.72557
xu1.net_1_3                        1.88055e-10
xu1.net_0                           3.7611e-10
xu1.net_1_2                        1.88055e-10
xu1.net_1_1                        1.88055e-10
xu1.net_1_0                        1.88055e-10
xu1.net_0_0                         3.7611e-10
zn                                     1.72557
vfix_a3#branch                               0
vfix_a2#branch                               0
vin#branch                                   0
vdd#branch                        -7.02322e-12

 Reference value :  2.79025e-08
 Reference value :  6.16330e-08
 Reference value :  9.27780e-08
 Reference value :  1.24209e-07
 Reference value :  1.55324e-07
 Reference value :  1.87053e-07
 Reference value :  2.16413e-07
 Reference value :  2.44758e-07
 Reference value :  2.73774e-07
 Reference value :  3.04784e-07
 Reference value :  3.35209e-07
No. of Data Rows : 68032

  Measurements for Transient Analysis

tphl                =  1.67376e-09 targ=  2.97040e-08 trig=  2.80303e-08
tplh                =  2.74611e-09 targ=  1.08837e-07 trig=  1.06091e-07
i_vdd_avg           =  -2.45740e-07 from=  1.00000e-08 to=  3.30004e-07
power_avg_uw        =  4.24041e-01


Total analysis time (seconds) = 3.56416

Total elapsed time (seconds) = 3.631 

Total DRAM available = 16384.000 MB.
DRAM currently available =   85.172 MB.
Maximum ngspice program size =   15.594 MB.
Current ngspice program size =   15.594 MB.

