
Note: No compatibility mode selected!


Circuit: GF180MCU library cell inv_4 I_to_ZN

Doing analysis at TEMP = 103.102050 and TNOM = 27.000000

Using SPARSE 1.3 as Direct Linear Solver

Initial Transient Solution
--------------------------

Node                                   Voltage
----                                   -------
vdd                                    1.81462
i                                            0
zn                                     1.81462
vin#branch                                   0
vdd#branch                        -3.01507e-11

 Reference value :  6.34807e-08
 Reference value :  1.57744e-07
 Reference value :  2.48321e-07
 Reference value :  3.37834e-07
No. of Data Rows : 68034

  Measurements for Transient Analysis

tphl                =  1.35530e-09 targ=  2.70469e-08 trig=  2.56916e-08
tplh                =  2.31995e-09 targ=  1.01395e-07 trig=  9.90749e-08
i_vdd_avg           =  -1.79432e-06 from=  1.00000e-08 to=  3.30004e-07
power_avg_uw        =  3.25600e+00


Total analysis time (seconds) = 1.30669

Total elapsed time (seconds) = 1.368 

Total DRAM available = 16384.000 MB.
DRAM currently available =  183.672 MB.
Maximum ngspice program size =   16.281 MB.
Current ngspice program size =   16.281 MB.

