
Note: No compatibility mode selected!


Circuit: GF180MCU library cell aoi21_1 A1_to_ZN__A2=1,B=0

Doing analysis at TEMP = 21.120089 and TNOM = 27.000000

Using SPARSE 1.3 as Direct Linear Solver

Initial Transient Solution
--------------------------

Node                                   Voltage
----                                   -------
vdd                                    1.94691
a1                                           0
a2                                     1.94691
b                                            0
xu1.net_0                          3.10119e-09
zn                                     1.94691
xu1.net_1                              1.94691
vfix_b#branch                                0
vfix_a2#branch                               0
vin#branch                                   0
vdd#branch                        -5.66819e-12

 Reference value :  7.39156e-08
 Reference value :  1.76759e-07
 Reference value :  2.81554e-07
No. of Data Rows : 68034

  Measurements for Transient Analysis

tphl                =  3.98643e-09 targ=  3.35180e-08 trig=  2.95316e-08
tplh                =  8.06553e-09 targ=  1.18660e-07 trig=  1.10595e-07
i_vdd_avg           =  -1.80431e-06 from=  1.00000e-08 to=  3.30004e-07
power_avg_uw        =  3.51283e+00


Total analysis time (seconds) = 1.05868

Total elapsed time (seconds) = 1.146 

Total DRAM available = 16384.000 MB.
DRAM currently available =   98.141 MB.
Maximum ngspice program size =   18.359 MB.
Current ngspice program size =   18.359 MB.

