
Note: No compatibility mode selected!


Circuit: GF180MCU library cell oai21_1 A1_to_ZN__A2=0,B=1

Doing analysis at TEMP = 33.149245 and TNOM = 27.000000

Using SPARSE 1.3 as Direct Linear Solver

Initial Transient Solution
--------------------------

Node                                   Voltage
----                                   -------
vdd                                    1.86402
a1                                           0
a2                                           0
b                                      1.86402
zn                                     1.86402
xu1.net_0                          1.53717e-08
xu1.net_1                              1.86402
vfix_b#branch                                0
vfix_a2#branch                               0
vin#branch                                   0
vdd#branch                        -7.42455e-12

 Reference value :  8.10296e-08
 Reference value :  1.87900e-07
 Reference value :  2.98807e-07
No. of Data Rows : 68030

  Measurements for Transient Analysis

tphl                =  3.50958e-09 targ=  2.81106e-08 trig=  2.46011e-08
tplh                =  8.74121e-09 targ=  1.04544e-07 trig=  9.58032e-08
i_vdd_avg           =  -2.35544e-06 from=  1.00000e-08 to=  3.30002e-07
power_avg_uw        =  4.39058e+00


Total analysis time (seconds) = 1.0202

Total elapsed time (seconds) = 1.089 

Total DRAM available = 16384.000 MB.
DRAM currently available =  114.000 MB.
Maximum ngspice program size =   16.609 MB.
Current ngspice program size =   16.609 MB.

