
Note: No compatibility mode selected!


Circuit: GF180MCU library cell inv_4 I_to_ZN

Doing analysis at TEMP = 101.913200 and TNOM = 27.000000

Using SPARSE 1.3 as Direct Linear Solver

Initial Transient Solution
--------------------------

Node                                   Voltage
----                                   -------
vdd                                    1.89377
i                                            0
zn                                     1.89377
vin#branch                                   0
vdd#branch                        -2.98304e-11

 Reference value :  6.21753e-08
 Reference value :  1.64283e-07
 Reference value :  2.68090e-07
No. of Data Rows : 68034

  Measurements for Transient Analysis

tphl                =  9.47788e-10 targ=  3.02492e-08 trig=  2.93014e-08
tplh                =  2.72047e-09 targ=  1.12625e-07 trig=  1.09904e-07
i_vdd_avg           =  -9.65327e-07 from=  1.00000e-08 to=  3.30003e-07
power_avg_uw        =  1.82811e+00


Total analysis time (seconds) = 1.22491

Total elapsed time (seconds) = 1.312 

Total DRAM available = 16384.000 MB.
DRAM currently available =  106.781 MB.
Maximum ngspice program size =   17.891 MB.
Current ngspice program size =   17.891 MB.

