
Note: No compatibility mode selected!


Circuit: GF180MCU library cell nand3_4 A1_to_ZN__A2=1,A3=1

Doing analysis at TEMP = 16.672485 and TNOM = 27.000000

Using SPARSE 1.3 as Direct Linear Solver

Initial Transient Solution
--------------------------

Node                                   Voltage
----                                   -------
vdd                                    1.66751
a1                                           0
a2                                     1.66751
a3                                     1.66751
xu1.net_1_3                        4.75233e-12
xu1.net_0                           9.5047e-12
xu1.net_1_2                        4.75237e-12
xu1.net_1_1                        4.75233e-12
xu1.net_1_0                        4.75235e-12
xu1.net_0_0                        9.50469e-12
zn                                     1.66751
vfix_a3#branch                               0
vfix_a2#branch                               0
vin#branch                                   0
vdd#branch                        -6.71219e-12

 Reference value :  2.79525e-08
 Reference value :  6.19146e-08
 Reference value :  9.28646e-08
 Reference value :  1.23607e-07
 Reference value :  1.56447e-07
 Reference value :  1.88253e-07
 Reference value :  2.17735e-07
 Reference value :  2.46500e-07
 Reference value :  2.75772e-07
 Reference value :  3.06207e-07
 Reference value :  3.35657e-07
No. of Data Rows : 68030

  Measurements for Transient Analysis

tphl                =  3.87023e-09 targ=  3.13338e-08 trig=  2.74635e-08
tplh                =  5.02978e-09 targ=  1.09420e-07 trig=  1.04391e-07
i_vdd_avg           =  -1.25655e-06 from=  1.00000e-08 to=  3.30002e-07
power_avg_uw        =  2.09531e+00


Total analysis time (seconds) = 3.57726

Total elapsed time (seconds) = 3.642 

Total DRAM available = 16384.000 MB.
DRAM currently available =   76.906 MB.
Maximum ngspice program size =   14.109 MB.
Current ngspice program size =   14.109 MB.

