
Note: No compatibility mode selected!


Circuit: GF180MCU library cell aoi21_4 A1_to_ZN__A2=1,B=0

Doing analysis at TEMP = 81.322234 and TNOM = 27.000000

Using SPARSE 1.3 as Direct Linear Solver

Initial Transient Solution
--------------------------

Node                                   Voltage
----                                   -------
vdd                                      1.956
a1                                           0
a2                                       1.956
b                                            0
xu1.net_0_0                        1.52803e-07
zn                                       1.956
xu1.net_0_1                        1.52803e-07
xu1.net_0_2                        1.52803e-07
xu1.net_0_3                        1.52803e-07
xu1.net_1                                1.956
vfix_b#branch                                0
vfix_a2#branch                               0
vin#branch                                   0
vdd#branch                        -2.96645e-10

 Reference value :  2.11764e-08
 Reference value :  5.23100e-08
 Reference value :  8.39150e-08
 Reference value :  1.16103e-07
 Reference value :  1.50033e-07
 Reference value :  1.83318e-07
 Reference value :  2.14920e-07
 Reference value :  2.45460e-07
 Reference value :  2.75163e-07
 Reference value :  3.04313e-07
 Reference value :  3.35708e-07
No. of Data Rows : 68034

  Measurements for Transient Analysis

tphl                =  6.55354e-10 targ=  2.92816e-08 trig=  2.86263e-08
tplh                =  2.65946e-09 targ=  1.10538e-07 trig=  1.07879e-07
i_vdd_avg           =  -1.37523e-06 from=  1.00000e-08 to=  3.30003e-07
power_avg_uw        =  2.68995e+00


Total analysis time (seconds) = 3.49889

Total elapsed time (seconds) = 3.569 

Total DRAM available = 16384.000 MB.
DRAM currently available =  104.297 MB.
Maximum ngspice program size =   19.125 MB.
Current ngspice program size =   19.125 MB.

