
Note: No compatibility mode selected!


Circuit: GF180MCU library cell aoi21_1 A1_to_ZN__A2=1,B=0

Doing analysis at TEMP = 66.847481 and TNOM = 27.000000

Using SPARSE 1.3 as Direct Linear Solver

Initial Transient Solution
--------------------------

Node                                   Voltage
----                                   -------
vdd                                    1.96568
a1                                           0
a2                                     1.96568
b                                            0
xu1.net_0                          3.18491e-10
zn                                     1.96568
xu1.net_1                              1.96568
vfix_b#branch                                0
vfix_a2#branch                               0
vin#branch                                   0
vdd#branch                        -4.04347e-12

 Reference value :  7.67570e-08
 Reference value :  1.84338e-07
 Reference value :  2.92941e-07
No. of Data Rows : 68032

  Measurements for Transient Analysis

tphl                =  2.16624e-09 targ=  2.75110e-08 trig=  2.53447e-08
tplh                =  4.94427e-09 targ=  1.02978e-07 trig=  9.80342e-08
i_vdd_avg           =  -5.26689e-07 from=  1.00000e-08 to=  3.30001e-07
power_avg_uw        =  1.03530e+00


Total analysis time (seconds) = 1.02189

Total elapsed time (seconds) = 1.106 

Total DRAM available = 16384.000 MB.
DRAM currently available =   84.031 MB.
Maximum ngspice program size =   14.719 MB.
Current ngspice program size =   14.719 MB.

