
Note: No compatibility mode selected!


Circuit: GF180MCU library cell oai21_4 A1_to_ZN__A2=0,B=1

Doing analysis at TEMP = 13.393046 and TNOM = 27.000000

Using SPARSE 1.3 as Direct Linear Solver

Initial Transient Solution
--------------------------

Node                                   Voltage
----                                   -------
vdd                                    1.86889
a1                                           0
a2                                           0
b                                      1.86889
zn                                     1.86889
xu1.net_0                          6.16662e-12
xu1.net_1_0                            1.86889
xu1.net_1_1                            1.86889
xu1.net_1_2                            1.86889
xu1.net_1_3                            1.86889
vfix_b#branch                                0
vfix_a2#branch                               0
vin#branch                                   0
vdd#branch                        -1.50345e-11

 Reference value :  2.80375e-08
 Reference value :  6.18896e-08
 Reference value :  9.24496e-08
 Reference value :  1.24262e-07
 Reference value :  1.55472e-07
 Reference value :  1.88348e-07
 Reference value :  2.22750e-07
 Reference value :  2.52320e-07
 Reference value :  2.80177e-07
 Reference value :  3.12312e-07
No. of Data Rows : 68030

  Measurements for Transient Analysis

tphl                =  1.64593e-09 targ=  3.06670e-08 trig=  2.90211e-08
tplh                =  3.70105e-09 targ=  1.12764e-07 trig=  1.09063e-07
i_vdd_avg           =  -3.76194e-07 from=  1.00000e-08 to=  3.30002e-07
power_avg_uw        =  7.03065e-01


Total analysis time (seconds) = 3.36542

Total elapsed time (seconds) = 3.438 

Total DRAM available = 16384.000 MB.
DRAM currently available =   79.609 MB.
Maximum ngspice program size =   14.906 MB.
Current ngspice program size =   14.906 MB.

