
Note: No compatibility mode selected!


Circuit: GF180MCU library cell nand2_1 A1_to_ZN__A2=1

Doing analysis at TEMP = 111.804900 and TNOM = 27.000000

Using SPARSE 1.3 as Direct Linear Solver

Initial Transient Solution
--------------------------

Node                                   Voltage
----                                   -------
vdd                                    1.95611
a1                                           0
a2                                     1.95611
xu1.net_0                          6.95418e-07
zn                                     1.95611
vfix_a2#branch                               0
vin#branch                                   0
vdd#branch                        -1.45423e-10

 Reference value :  1.27342e-07
 Reference value :  2.93262e-07
No. of Data Rows : 68032

  Measurements for Transient Analysis

tphl                =  4.03599e-09 targ=  3.30208e-08 trig=  2.89848e-08
tplh                =  5.61307e-09 targ=  1.14568e-07 trig=  1.08955e-07
i_vdd_avg           =  -1.79697e-06 from=  1.00000e-08 to=  3.30002e-07
power_avg_uw        =  3.51506e+00


Total analysis time (seconds) = 0.65758

Total elapsed time (seconds) = 0.714 

Total DRAM available = 16384.000 MB.
DRAM currently available =  108.656 MB.
Maximum ngspice program size =   13.531 MB.
Current ngspice program size =   13.531 MB.

