
Note: No compatibility mode selected!


Circuit: GF180MCU library cell mux2_1 I0_to_Z__I1=0,S=0

Doing analysis at TEMP = 54.855629 and TNOM = 27.000000

Using SPARSE 1.3 as Direct Linear Solver

Initial Transient Solution
--------------------------

Node                                   Voltage
----                                   -------
vdd                                    1.73341
i0                                           0
i1                                           0
s                                            0
xu1.int04                               1.7334
z                                  1.65722e-08
xu1.net_1                            0.0174278
xu1.net_3                              1.19058
xu1.sel1_n                             1.73341
xu1.net_0                              1.73341
xu1.net_2                              1.73341
vfix_s#branch                                0
vfix_i1#branch                               0
vin#branch                                   0
vdd#branch                        -9.70936e-12

 Reference value :  5.38768e-08
 Reference value :  1.21786e-07
 Reference value :  1.73891e-07
 Reference value :  2.27852e-07
 Reference value :  2.84526e-07
No. of Data Rows : 68032

  Measurements for Transient Analysis

tplh                =  1.39044e-08 targ=  4.37516e-08 trig=  2.98472e-08
tphl                =  9.56358e-09 targ=  1.21105e-07 trig=  1.11541e-07
i_vdd_avg           =  -2.09834e-06 from=  1.00000e-08 to=  3.30001e-07
power_avg_uw        =  3.63727e+00


Total analysis time (seconds) = 1.82545

Total elapsed time (seconds) = 1.886 

Total DRAM available = 16384.000 MB.
DRAM currently available =   85.844 MB.
Maximum ngspice program size =   12.797 MB.
Current ngspice program size =   12.781 MB.

