
Note: No compatibility mode selected!


Circuit: GF180MCU library cell xor2_4 A1_to_Z__A2=0

Doing analysis at TEMP = 18.375216 and TNOM = 27.000000

Using SPARSE 1.3 as Direct Linear Solver

Initial Transient Solution
--------------------------

Node                                   Voltage
----                                   -------
vdd                                    1.85775
a1                                           0
a2                                           0
xu1.net_2                            0.0178455
xu1.i                                  1.85775
xu1.net_0                          2.05342e-10
xu1.z_neg                              1.85775
z                                  1.04283e-08
xu1.net_1                              1.85775
vfix_a2#branch                               0
vin#branch                                   0
vdd#branch                        -1.35428e-11

 Reference value :  2.32214e-08
 Reference value :  6.50882e-08
 Reference value :  1.07593e-07
 Reference value :  1.49574e-07
 Reference value :  1.93278e-07
 Reference value :  2.34748e-07
 Reference value :  2.75749e-07
 Reference value :  3.17754e-07
No. of Data Rows : 68032

  Measurements for Transient Analysis

tplh                =  2.37934e-09 targ=  3.09972e-08 trig=  2.86178e-08
tphl                =  3.95359e-09 targ=  1.11807e-07 trig=  1.07853e-07
i_vdd_avg           =  -1.33597e-06 from=  1.00000e-08 to=  3.30004e-07
power_avg_uw        =  2.48190e+00


Total analysis time (seconds) = 2.66912

Total elapsed time (seconds) = 2.749 

Total DRAM available = 16384.000 MB.
DRAM currently available =   67.094 MB.
Maximum ngspice program size =   16.922 MB.
Current ngspice program size =   16.922 MB.

