
Note: No compatibility mode selected!


Circuit: GF180MCU library cell nor2_1 A1_to_ZN__A2=0

Doing analysis at TEMP = -18.584672 and TNOM = 27.000000

Using SPARSE 1.3 as Direct Linear Solver

Initial Transient Solution
--------------------------

Node                                   Voltage
----                                   -------
vdd                                    1.78626
a1                                           0
a2                                           0
zn                                     1.78626
xu1.net_0                              1.78626
vfix_a2#branch                               0
vin#branch                                   0
vdd#branch                        -3.59365e-12

 Reference value :  9.30750e-08
 Reference value :  2.51520e-07
No. of Data Rows : 68030

  Measurements for Transient Analysis

tphl                =  3.19425e-09 targ=  3.10180e-08 trig=  2.78237e-08
tplh                =  6.80936e-09 targ=  1.12281e-07 trig=  1.05471e-07
i_vdd_avg           =  -7.94292e-07 from=  1.00000e-08 to=  3.30002e-07
power_avg_uw        =  1.41882e+00


Total analysis time (seconds) = 0.738341

Total elapsed time (seconds) = 0.814 

Total DRAM available = 16384.000 MB.
DRAM currently available =  131.391 MB.
Maximum ngspice program size =   18.688 MB.
Current ngspice program size =   18.688 MB.

