
Note: No compatibility mode selected!


Circuit: GF180MCU library cell oai21_4 A1_to_ZN__A2=0,B=1

Doing analysis at TEMP = 97.925091 and TNOM = 27.000000

Using SPARSE 1.3 as Direct Linear Solver

Initial Transient Solution
--------------------------

Node                                   Voltage
----                                   -------
vdd                                    1.77974
a1                                           0
a2                                           0
b                                      1.77974
zn                                     1.77974
xu1.net_0                          5.61909e-09
xu1.net_1_0                            1.77974
xu1.net_1_1                            1.77974
xu1.net_1_2                            1.77974
xu1.net_1_3                            1.77974
vfix_b#branch                                0
vfix_a2#branch                               0
vin#branch                                   0
vdd#branch                        -1.66176e-11

 Reference value :  2.23264e-08
 Reference value :  5.44130e-08
 Reference value :  8.43130e-08
 Reference value :  1.17098e-07
 Reference value :  1.47158e-07
 Reference value :  1.78053e-07
 Reference value :  2.10118e-07
 Reference value :  2.40293e-07
 Reference value :  2.67348e-07
 Reference value :  2.98808e-07
 Reference value :  3.30258e-07
No. of Data Rows : 68032

  Measurements for Transient Analysis

tphl                =  2.89838e-09 targ=  2.83461e-08 trig=  2.54477e-08
tplh                =  7.83722e-09 targ=  1.06180e-07 trig=  9.83432e-08
i_vdd_avg           =  -2.17510e-06 from=  1.00000e-08 to=  3.30003e-07
power_avg_uw        =  3.87111e+00


Total analysis time (seconds) = 3.56821

Total elapsed time (seconds) = 3.635 

Total DRAM available = 16384.000 MB.
DRAM currently available =  134.344 MB.
Maximum ngspice program size =   15.609 MB.
Current ngspice program size =   15.609 MB.

