
Note: No compatibility mode selected!


Circuit: GF180MCU library cell oai21_1 A1_to_ZN__A2=0,B=1

Doing analysis at TEMP = 8.939266 and TNOM = 27.000000

Using SPARSE 1.3 as Direct Linear Solver

Initial Transient Solution
--------------------------

Node                                   Voltage
----                                   -------
vdd                                    1.90619
a1                                           0
a2                                           0
b                                      1.90619
zn                                     1.90619
xu1.net_0                          2.32063e-09
xu1.net_1                              1.90619
vfix_b#branch                                0
vfix_a2#branch                               0
vin#branch                                   0
vdd#branch                        -4.44171e-12

 Reference value :  7.48066e-08
 Reference value :  1.79411e-07
 Reference value :  2.89546e-07
No. of Data Rows : 68032

  Measurements for Transient Analysis

tphl                =  6.38365e-10 targ=  2.82404e-08 trig=  2.76020e-08
tplh                =  2.13895e-09 targ=  1.06945e-07 trig=  1.04806e-07
i_vdd_avg           =  -2.47593e-07 from=  1.00000e-08 to=  3.30001e-07
power_avg_uw        =  4.71961e-01


Total analysis time (seconds) = 1.00714

Total elapsed time (seconds) = 1.085 

Total DRAM available = 16384.000 MB.
DRAM currently available =   85.922 MB.
Maximum ngspice program size =   17.594 MB.
Current ngspice program size =   17.594 MB.

