
Note: No compatibility mode selected!


Circuit: GF180MCU library cell nand2_4 A1_to_ZN__A2=1

Doing analysis at TEMP = -36.389359 and TNOM = 27.000000

Using SPARSE 1.3 as Direct Linear Solver

Initial Transient Solution
--------------------------

Node                                   Voltage
----                                   -------
vdd                                    1.69332
a1                                           0
a2                                     1.69332
xu1.net_0_0                        1.26671e-11
zn                                     1.69332
xu1.net_0_1                        1.26662e-11
xu1.net_0_2                        1.26671e-11
xu1.net_0_3                        1.26662e-11
vfix_a2#branch                               0
vin#branch                                   0
vdd#branch                        -6.82657e-12

 Reference value :  3.17085e-08
 Reference value :  8.00485e-08
 Reference value :  1.27535e-07
 Reference value :  1.75755e-07
 Reference value :  2.24549e-07
 Reference value :  2.71865e-07
 Reference value :  3.18340e-07
No. of Data Rows : 68032

  Measurements for Transient Analysis

tphl                =  8.67051e-10 targ=  2.53501e-08 trig=  2.44830e-08
tplh                =  1.23833e-09 targ=  9.66874e-08 trig=  9.54491e-08
i_vdd_avg           =  -1.70566e-06 from=  1.00000e-08 to=  3.30005e-07
power_avg_uw        =  2.88822e+00


Total analysis time (seconds) = 2.44496

Total elapsed time (seconds) = 2.509 

Total DRAM available = 16384.000 MB.
DRAM currently available =   97.922 MB.
Maximum ngspice program size =   17.406 MB.
Current ngspice program size =   17.406 MB.

