
Note: No compatibility mode selected!


Circuit: GF180MCU library cell mux2_1 I0_to_Z__I1=0,S=0

Doing analysis at TEMP = 22.176406 and TNOM = 27.000000

Using SPARSE 1.3 as Direct Linear Solver

Initial Transient Solution
--------------------------

Node                                   Voltage
----                                   -------
vdd                                    1.83867
i0                                           0
i1                                           0
s                                            0
xu1.int04                              1.83867
z                                  8.07016e-09
xu1.net_1                            0.0429317
xu1.net_3                              1.38623
xu1.sel1_n                             1.83867
xu1.net_0                              1.83867
xu1.net_2                              1.83867
vfix_s#branch                                0
vfix_i1#branch                               0
vin#branch                                   0
vdd#branch                        -1.58153e-11

 Reference value :  4.65982e-08
 Reference value :  1.00563e-07
 Reference value :  1.56934e-07
 Reference value :  2.10373e-07
 Reference value :  2.64503e-07
 Reference value :  3.21119e-07
No. of Data Rows : 68032

  Measurements for Transient Analysis

tplh                =  3.83098e-10 targ=  3.00385e-08 trig=  2.96554e-08
tphl                =  2.44443e-09 targ=  1.13411e-07 trig=  1.10966e-07
i_vdd_avg           =  -2.45454e-07 from=  1.00000e-08 to=  3.30004e-07
power_avg_uw        =  4.51310e-01


Total analysis time (seconds) = 1.94622

Total elapsed time (seconds) = 2.007 

Total DRAM available = 16384.000 MB.
DRAM currently available =   85.844 MB.
Maximum ngspice program size =   13.141 MB.
Current ngspice program size =   12.578 MB.

