
Note: No compatibility mode selected!


Circuit: GF180MCU library cell inv_4 I_to_ZN

Doing analysis at TEMP = 10.154647 and TNOM = 27.000000

Using SPARSE 1.3 as Direct Linear Solver

Initial Transient Solution
--------------------------

Node                                   Voltage
----                                   -------
vdd                                    1.93754
i                                            0
zn                                     1.93754
vin#branch                                   0
vdd#branch                        -7.82848e-12

 Reference value :  7.38122e-08
 Reference value :  1.64322e-07
 Reference value :  2.68242e-07
No. of Data Rows : 68032

  Measurements for Transient Analysis

tphl                =  1.15048e-09 targ=  2.81778e-08 trig=  2.70273e-08
tplh                =  2.32233e-09 targ=  1.05404e-07 trig=  1.03082e-07
i_vdd_avg           =  -1.20911e-06 from=  1.00000e-08 to=  3.30002e-07
power_avg_uw        =  2.34269e+00


Total analysis time (seconds) = 1.15695

Total elapsed time (seconds) = 1.212 

Total DRAM available = 16384.000 MB.
DRAM currently available =  126.062 MB.
Maximum ngspice program size =   15.984 MB.
Current ngspice program size =   15.984 MB.

