
Note: No compatibility mode selected!


Circuit: GF180MCU library cell aoi21_1 A1_to_ZN__A2=1,B=0

Doing analysis at TEMP = -36.865350 and TNOM = 27.000000

Using SPARSE 1.3 as Direct Linear Solver

Initial Transient Solution
--------------------------

Node                                   Voltage
----                                   -------
vdd                                    1.97806
a1                                           0
a2                                     1.97806
b                                            0
xu1.net_0                          2.22058e-13
zn                                     1.97806
xu1.net_1                              1.97806
vfix_b#branch                                0
vfix_a2#branch                               0
vin#branch                                   0
vdd#branch                        -3.97627e-12

 Reference value :  7.59762e-08
 Reference value :  1.86408e-07
 Reference value :  2.93045e-07
No. of Data Rows : 68034

  Measurements for Transient Analysis

tphl                =  5.53784e-09 targ=  3.36072e-08 trig=  2.80693e-08
tplh                =  1.20628e-08 targ=  1.18271e-07 trig=  1.06208e-07
i_vdd_avg           =  -2.47409e-06 from=  1.00000e-08 to=  3.30005e-07
power_avg_uw        =  4.89390e+00


Total analysis time (seconds) = 1.00934

Total elapsed time (seconds) = 1.085 

Total DRAM available = 16384.000 MB.
DRAM currently available =   85.000 MB.
Maximum ngspice program size =   17.562 MB.
Current ngspice program size =   17.562 MB.

