
Note: No compatibility mode selected!


Circuit: GF180MCU library cell inv_4 I_to_ZN

Doing analysis at TEMP = 44.997749 and TNOM = 27.000000

Using SPARSE 1.3 as Direct Linear Solver

Initial Transient Solution
--------------------------

Node                                   Voltage
----                                   -------
vdd                                      1.806
i                                            0
zn                                       1.806
vin#branch                                   0
vdd#branch                        -7.89382e-12

 Reference value :  7.01387e-08
 Reference value :  1.63675e-07
 Reference value :  2.67239e-07
No. of Data Rows : 68032

  Measurements for Transient Analysis

tphl                =  2.14122e-09 targ=  2.95918e-08 trig=  2.74506e-08
tplh                =  3.73171e-09 targ=  1.08084e-07 trig=  1.04352e-07
i_vdd_avg           =  -2.30930e-06 from=  1.00000e-08 to=  3.30005e-07
power_avg_uw        =  4.17059e+00


Total analysis time (seconds) = 1.12008

Total elapsed time (seconds) = 1.203 

Total DRAM available = 16384.000 MB.
DRAM currently available =  106.781 MB.
Maximum ngspice program size =   17.281 MB.
Current ngspice program size =   17.281 MB.

