
Note: No compatibility mode selected!


Circuit: GF180MCU library cell xor2_4 A1_to_Z__A2=0

Doing analysis at TEMP = -15.701273 and TNOM = 27.000000

Using SPARSE 1.3 as Direct Linear Solver

Initial Transient Solution
--------------------------

Node                                   Voltage
----                                   -------
vdd                                    1.82921
a1                                           0
a2                                           0
xu1.net_2                          9.04754e-05
xu1.i                                  1.82921
xu1.net_0                          2.21715e-13
xu1.z_neg                              1.82921
z                                  1.30498e-08
xu1.net_1                              1.82921
vfix_a2#branch                               0
vin#branch                                   0
vdd#branch                        -1.31765e-11

 Reference value :  4.08058e-08
 Reference value :  8.18958e-08
 Reference value :  1.23494e-07
 Reference value :  1.66709e-07
 Reference value :  2.10451e-07
 Reference value :  2.55766e-07
 Reference value :  2.97234e-07
No. of Data Rows : 68034

  Measurements for Transient Analysis

tplh                =  3.99187e-09 targ=  2.98360e-08 trig=  2.58442e-08
tphl                =  4.36202e-09 targ=  1.03894e-07 trig=  9.95325e-08
i_vdd_avg           =  -2.13588e-06 from=  1.00000e-08 to=  3.30004e-07
power_avg_uw        =  3.90697e+00


Total analysis time (seconds) = 2.389

Total elapsed time (seconds) = 2.451 

Total DRAM available = 16384.000 MB.
DRAM currently available =  101.609 MB.
Maximum ngspice program size =   13.016 MB.
Current ngspice program size =   12.781 MB.

