
Note: No compatibility mode selected!


Circuit: GF180MCU library cell mux2_1 I0_to_Z__I1=0,S=0

Doing analysis at TEMP = 88.580611 and TNOM = 27.000000

Using SPARSE 1.3 as Direct Linear Solver

Initial Transient Solution
--------------------------

Node                                   Voltage
----                                   -------
vdd                                    1.93747
i0                                           0
i1                                           0
s                                            0
xu1.int04                              1.93747
z                                  1.72384e-08
xu1.net_1                            0.0358643
xu1.net_3                              1.39884
xu1.sel1_n                             1.93747
xu1.net_0                              1.93747
xu1.net_2                              1.93747
vfix_s#branch                                0
vfix_i1#branch                               0
vin#branch                                   0
vdd#branch                        -1.27953e-11

 Reference value :  4.30107e-08
 Reference value :  1.01411e-07
 Reference value :  1.57334e-07
 Reference value :  2.08291e-07
 Reference value :  2.64501e-07
 Reference value :  3.22129e-07
No. of Data Rows : 68034

  Measurements for Transient Analysis

tplh                =  1.10418e-08 targ=  3.88909e-08 trig=  2.78491e-08
tphl                =  7.40648e-09 targ=  1.12954e-07 trig=  1.05547e-07
i_vdd_avg           =  -2.45549e-06 from=  1.00000e-08 to=  3.30004e-07
power_avg_uw        =  4.75744e+00


Total analysis time (seconds) = 1.94686

Total elapsed time (seconds) = 2.022 

Total DRAM available = 16384.000 MB.
DRAM currently available =   95.703 MB.
Maximum ngspice program size =   18.109 MB.
Current ngspice program size =   18.109 MB.

