
Note: No compatibility mode selected!


Circuit: GF180MCU library cell oai21_1 A1_to_ZN__A2=0,B=1

Doing analysis at TEMP = 95.606584 and TNOM = 27.000000

Using SPARSE 1.3 as Direct Linear Solver

Initial Transient Solution
--------------------------

Node                                   Voltage
----                                   -------
vdd                                     1.7123
a1                                           0
a2                                           0
b                                       1.7123
zn                                     1.71229
xu1.net_0                          6.59584e-07
xu1.net_1                              1.71229
vfix_b#branch                                0
vfix_a2#branch                               0
vin#branch                                   0
vdd#branch                        -1.26194e-10

 Reference value :  6.58313e-08
 Reference value :  1.72510e-07
 Reference value :  2.74535e-07
No. of Data Rows : 68032

  Measurements for Transient Analysis

tphl                =  3.41366e-09 targ=  2.83106e-08 trig=  2.48969e-08
tplh                =  8.41307e-09 targ=  1.05104e-07 trig=  9.66907e-08
i_vdd_avg           =  -1.63519e-06 from=  1.00000e-08 to=  3.30000e-07
power_avg_uw        =  2.79993e+00


Total analysis time (seconds) = 1.0857

Total elapsed time (seconds) = 1.175 

Total DRAM available = 16384.000 MB.
DRAM currently available =  123.047 MB.
Maximum ngspice program size =   16.016 MB.
Current ngspice program size =   16.016 MB.

