
Note: No compatibility mode selected!


Circuit: GF180MCU library cell inv_4 I_to_ZN

Doing analysis at TEMP = 20.210985 and TNOM = 27.000000

Using SPARSE 1.3 as Direct Linear Solver

Initial Transient Solution
--------------------------

Node                                   Voltage
----                                   -------
vdd                                    1.82533
i                                            0
zn                                     1.82533
vin#branch                                   0
vdd#branch                        -7.34457e-12

 Reference value :  6.84385e-08
 Reference value :  1.69344e-07
 Reference value :  2.68484e-07
No. of Data Rows : 68032

  Measurements for Transient Analysis

tphl                =  1.78109e-09 targ=  2.77266e-08 trig=  2.59455e-08
tplh                =  3.03719e-09 targ=  1.02874e-07 trig=  9.98364e-08
i_vdd_avg           =  -1.50341e-06 from=  1.00000e-08 to=  3.30004e-07
power_avg_uw        =  2.74421e+00


Total analysis time (seconds) = 1.10361

Total elapsed time (seconds) = 1.202 

Total DRAM available = 16384.000 MB.
DRAM currently available =  106.781 MB.
Maximum ngspice program size =   17.609 MB.
Current ngspice program size =   17.609 MB.

