
Note: No compatibility mode selected!


Circuit: GF180MCU library cell inv_1 I_to_ZN

Doing analysis at TEMP = 40.589246 and TNOM = 27.000000

Using SPARSE 1.3 as Direct Linear Solver

Initial Transient Solution
--------------------------

Node                                   Voltage
----                                   -------
vdd                                    1.87259
i                                            0
zn                                     1.87259
vin#branch                                   0
vdd#branch                        -1.88774e-12

 Reference value :  2.05694e-07
No. of Data Rows : 68030

  Measurements for Transient Analysis

tphl                =  3.80795e-09 targ=  2.99013e-08 trig=  2.60934e-08
tplh                =  7.96644e-09 targ=  1.08247e-07 trig=  1.00280e-07
i_vdd_avg           =  -1.52192e-06 from=  1.00000e-08 to=  3.30001e-07
power_avg_uw        =  2.84993e+00


Total analysis time (seconds) = 0.416644

Total elapsed time (seconds) = 0.510 

Total DRAM available = 16384.000 MB.
DRAM currently available =   74.906 MB.
Maximum ngspice program size =   19.484 MB.
Current ngspice program size =   19.484 MB.

