
Note: No compatibility mode selected!


Circuit: GF180MCU library cell xor2_4 A1_to_Z__A2=0

Doing analysis at TEMP = 4.354392 and TNOM = 27.000000

Using SPARSE 1.3 as Direct Linear Solver

Initial Transient Solution
--------------------------

Node                                   Voltage
----                                   -------
vdd                                    1.78868
a1                                           0
a2                                           0
xu1.net_2                           0.00859511
xu1.i                                  1.78868
xu1.net_0                           5.5631e-11
xu1.z_neg                              1.78868
z                                  1.01221e-08
xu1.net_1                              1.78868
vfix_a2#branch                               0
vin#branch                                   0
vdd#branch                         -1.2978e-11

 Reference value :  2.99975e-08
 Reference value :  7.26906e-08
 Reference value :  1.13634e-07
 Reference value :  1.54619e-07
 Reference value :  1.97681e-07
 Reference value :  2.41736e-07
 Reference value :  2.83304e-07
 Reference value :  3.26524e-07
No. of Data Rows : 68034

  Measurements for Transient Analysis

tplh                =  2.12192e-09 targ=  3.02135e-08 trig=  2.80915e-08
tphl                =  3.68526e-09 targ=  1.09960e-07 trig=  1.06275e-07
i_vdd_avg           =  -7.20641e-07 from=  1.00000e-08 to=  3.30004e-07
power_avg_uw        =  1.28900e+00


Total analysis time (seconds) = 2.56858

Total elapsed time (seconds) = 2.648 

Total DRAM available = 16384.000 MB.
DRAM currently available =  100.594 MB.
Maximum ngspice program size =   17.766 MB.
Current ngspice program size =   17.766 MB.

