
Note: No compatibility mode selected!


Circuit: GF180MCU library cell oai21_4 A1_to_ZN__A2=0,B=1

Doing analysis at TEMP = 44.989933 and TNOM = 27.000000

Using SPARSE 1.3 as Direct Linear Solver

Initial Transient Solution
--------------------------

Node                                   Voltage
----                                   -------
vdd                                    1.80744
a1                                           0
a2                                           0
b                                      1.80744
zn                                     1.80744
xu1.net_0                           3.5134e-08
xu1.net_1_0                            1.80744
xu1.net_1_1                            1.80744
xu1.net_1_2                            1.80744
xu1.net_1_3                            1.80744
vfix_b#branch                                0
vfix_a2#branch                               0
vin#branch                                   0
vdd#branch                        -4.60037e-11

 Reference value :  2.73589e-08
 Reference value :  5.84339e-08
 Reference value :  9.05539e-08
 Reference value :  1.22760e-07
 Reference value :  1.53050e-07
 Reference value :  1.83275e-07
 Reference value :  2.15339e-07
 Reference value :  2.46134e-07
 Reference value :  2.72490e-07
 Reference value :  3.02515e-07
 Reference value :  3.33890e-07
No. of Data Rows : 68030

  Measurements for Transient Analysis

tphl                =  5.83677e-10 targ=  2.61269e-08 trig=  2.55432e-08
tplh                =  1.44524e-09 targ=  1.00075e-07 trig=  9.86297e-08
i_vdd_avg           =  -6.81855e-07 from=  1.00000e-08 to=  3.30000e-07
power_avg_uw        =  1.23241e+00


Total analysis time (seconds) = 3.48722

Total elapsed time (seconds) = 3.556 

Total DRAM available = 16384.000 MB.
DRAM currently available =   79.609 MB.
Maximum ngspice program size =   14.656 MB.
Current ngspice program size =   14.656 MB.

