
Note: No compatibility mode selected!


Circuit: GF180MCU library cell mux2_4 I0_to_Z__I1=0,S=0

Doing analysis at TEMP = 117.109080 and TNOM = 27.000000

Using SPARSE 1.3 as Direct Linear Solver

Initial Transient Solution
--------------------------

Node                                   Voltage
----                                   -------
vdd                                    1.77458
i0                                           0
i1                                           0
s                                            0
xu1.int04                              1.77458
z                                  1.92711e-08
xu1.net_1                            0.0340366
xu1.net_3                              1.22471
xu1.sel1_n                             1.77458
xu1.net_0                              1.77458
xu1.net_2                              1.77458
vfix_s#branch                                0
vfix_i1#branch                               0
vin#branch                                   0
vdd#branch                        -1.71756e-11

 Reference value :  3.73513e-08
 Reference value :  8.00113e-08
 Reference value :  1.18645e-07
 Reference value :  1.57355e-07
 Reference value :  1.94106e-07
 Reference value :  2.32001e-07
 Reference value :  2.71745e-07
 Reference value :  3.08985e-07
No. of Data Rows : 68032

  Measurements for Transient Analysis

tplh                =  4.60943e-09 targ=  3.18913e-08 trig=  2.72819e-08
tphl                =  5.47187e-09 targ=  1.09318e-07 trig=  1.03846e-07
i_vdd_avg           =  -1.74675e-06 from=  1.00000e-08 to=  3.30000e-07
power_avg_uw        =  3.09974e+00


Total analysis time (seconds) = 2.85423

Total elapsed time (seconds) = 2.914 

Total DRAM available = 16384.000 MB.
DRAM currently available =  157.578 MB.
Maximum ngspice program size =   13.062 MB.
Current ngspice program size =   13.000 MB.

