
Note: No compatibility mode selected!


Circuit: GF180MCU library cell aoi21_1 A1_to_ZN__A2=1,B=0

Doing analysis at TEMP = -6.657794 and TNOM = 27.000000

Using SPARSE 1.3 as Direct Linear Solver

Initial Transient Solution
--------------------------

Node                                   Voltage
----                                   -------
vdd                                    1.90861
a1                                           0
a2                                     1.90861
b                                            0
xu1.net_0                          2.88018e-10
zn                                     1.90861
xu1.net_1                              1.90861
vfix_b#branch                                0
vfix_a2#branch                               0
vin#branch                                   0
vdd#branch                        -4.01606e-12

 Reference value :  7.28749e-08
 Reference value :  1.80072e-07
 Reference value :  2.83477e-07
No. of Data Rows : 68030

  Measurements for Transient Analysis

tphl                =  3.70613e-09 targ=  3.08423e-08 trig=  2.71362e-08
tplh                =  7.98533e-09 targ=  1.11394e-07 trig=  1.03409e-07
i_vdd_avg           =  -2.09391e-06 from=  1.00000e-08 to=  3.30002e-07
power_avg_uw        =  3.99644e+00


Total analysis time (seconds) = 1.03264

Total elapsed time (seconds) = 1.115 

Total DRAM available = 16384.000 MB.
DRAM currently available =  125.188 MB.
Maximum ngspice program size =   17.000 MB.
Current ngspice program size =   17.000 MB.

