
Note: No compatibility mode selected!


Circuit: GF180MCU library cell nor2_1 A1_to_ZN__A2=0

Doing analysis at TEMP = -22.322276 and TNOM = 27.000000

Using SPARSE 1.3 as Direct Linear Solver

Initial Transient Solution
--------------------------

Node                                   Voltage
----                                   -------
vdd                                    1.83919
a1                                           0
a2                                           0
zn                                     1.83919
xu1.net_0                              1.83919
vfix_a2#branch                               0
vin#branch                                   0
vdd#branch                         -3.6984e-12

 Reference value :  1.28636e-07
 Reference value :  2.82041e-07
No. of Data Rows : 68030

  Measurements for Transient Analysis

tphl                =  4.63390e-09 targ=  3.07323e-08 trig=  2.60984e-08
tplh                =  1.40876e-08 targ=  1.14383e-07 trig=  1.00295e-07
i_vdd_avg           =  -1.42327e-06 from=  1.00000e-08 to=  3.30001e-07
power_avg_uw        =  2.61766e+00


Total analysis time (seconds) = 0.666022

Total elapsed time (seconds) = 0.720 

Total DRAM available = 16384.000 MB.
DRAM currently available =  131.391 MB.
Maximum ngspice program size =   15.312 MB.
Current ngspice program size =   15.312 MB.

