
Note: No compatibility mode selected!


Circuit: GF180MCU library cell nand3_1 A1_to_ZN__A2=1,A3=1

Doing analysis at TEMP = -25.244212 and TNOM = 27.000000

Using SPARSE 1.3 as Direct Linear Solver

Initial Transient Solution
--------------------------

Node                                   Voltage
----                                   -------
vdd                                    1.66438
a1                                           0
a2                                     1.66438
a3                                     1.66438
xu1.net_1                          4.53558e-11
xu1.net_0                          9.07116e-11
zn                                     1.66438
vfix_a3#branch                               0
vfix_a2#branch                               0
vin#branch                                   0
vdd#branch                        -1.68564e-12

 Reference value :  9.60130e-08
 Reference value :  2.02433e-07
 Reference value :  2.99418e-07
No. of Data Rows : 68032

  Measurements for Transient Analysis

tphl                =  2.75024e-09 targ=  2.99830e-08 trig=  2.72327e-08
tplh                =  3.63941e-09 targ=  1.07338e-07 trig=  1.03698e-07
i_vdd_avg           =  -6.41743e-07 from=  1.00000e-08 to=  3.30003e-07
power_avg_uw        =  1.06811e+00


Total analysis time (seconds) = 0.994187

Total elapsed time (seconds) = 1.063 

Total DRAM available = 16384.000 MB.
DRAM currently available =   75.734 MB.
Maximum ngspice program size =   15.406 MB.
Current ngspice program size =   15.406 MB.

