
Note: No compatibility mode selected!


Circuit: GF180MCU library cell inv_4 I_to_ZN

Doing analysis at TEMP = -18.165003 and TNOM = 27.000000

Using SPARSE 1.3 as Direct Linear Solver

Initial Transient Solution
--------------------------

Node                                   Voltage
----                                   -------
vdd                                    1.63927
i                                            0
zn                                     1.63927
vin#branch                                   0
vdd#branch                         -6.6891e-12

 Reference value :  6.72917e-08
 Reference value :  1.69221e-07
 Reference value :  2.65426e-07
No. of Data Rows : 68032

  Measurements for Transient Analysis

tphl                =  7.49489e-10 targ=  2.58141e-08 trig=  2.50646e-08
tplh                =  1.31974e-09 targ=  9.85135e-08 trig=  9.71937e-08
i_vdd_avg           =  -1.18089e-06 from=  1.00000e-08 to=  3.30001e-07
power_avg_uw        =  1.93580e+00


Total analysis time (seconds) = 1.1872

Total elapsed time (seconds) = 1.254 

Total DRAM available = 16384.000 MB.
DRAM currently available =  106.781 MB.
Maximum ngspice program size =   17.297 MB.
Current ngspice program size =   17.297 MB.

