
Note: No compatibility mode selected!


Circuit: GF180MCU library cell nand2_1 A1_to_ZN__A2=1

Doing analysis at TEMP = 75.629042 and TNOM = 27.000000

Using SPARSE 1.3 as Direct Linear Solver

Initial Transient Solution
--------------------------

Node                                   Voltage
----                                   -------
vdd                                     1.9676
a1                                           0
a2                                      1.9676
xu1.net_0                          5.99556e-10
zn                                      1.9676
vfix_a2#branch                               0
vin#branch                                   0
vdd#branch                        -2.05224e-12

 Reference value :  1.10676e-07
 Reference value :  2.80476e-07
No. of Data Rows : 68032

  Measurements for Transient Analysis

tphl                =  5.31593e-09 targ=  3.22855e-08 trig=  2.69696e-08
tplh                =  7.39102e-09 targ=  1.10300e-07 trig=  1.02909e-07
i_vdd_avg           =  -1.35205e-06 from=  1.00000e-08 to=  3.30001e-07
power_avg_uw        =  2.66030e+00


Total analysis time (seconds) = 0.676764

Total elapsed time (seconds) = 0.756 

Total DRAM available = 16384.000 MB.
DRAM currently available =  124.516 MB.
Maximum ngspice program size =   15.641 MB.
Current ngspice program size =   15.641 MB.

