
Note: No compatibility mode selected!


Circuit: GF180MCU library cell aoi21_1 A1_to_ZN__A2=1,B=0

Doing analysis at TEMP = 34.267105 and TNOM = 27.000000

Using SPARSE 1.3 as Direct Linear Solver

Initial Transient Solution
--------------------------

Node                                   Voltage
----                                   -------
vdd                                    1.89584
a1                                           0
a2                                     1.89584
b                                            0
xu1.net_0                           8.2972e-09
zn                                     1.89584
xu1.net_1                              1.89584
vfix_b#branch                                0
vfix_a2#branch                               0
vin#branch                                   0
vdd#branch                        -8.14896e-12

 Reference value :  6.82100e-08
 Reference value :  1.81378e-07
 Reference value :  2.86258e-07
No. of Data Rows : 68034

  Measurements for Transient Analysis

tphl                =  3.42477e-09 targ=  3.13910e-08 trig=  2.79663e-08
tplh                =  7.01913e-09 targ=  1.12918e-07 trig=  1.05899e-07
i_vdd_avg           =  -1.53294e-06 from=  1.00000e-08 to=  3.30003e-07
power_avg_uw        =  2.90621e+00


Total analysis time (seconds) = 1.05491

Total elapsed time (seconds) = 1.127 

Total DRAM available = 16384.000 MB.
DRAM currently available =  116.797 MB.
Maximum ngspice program size =   17.234 MB.
Current ngspice program size =   17.234 MB.

