
Note: No compatibility mode selected!


Circuit: GF180MCU library cell nand3_4 A1_to_ZN__A2=1,A3=1

Doing analysis at TEMP = 101.129100 and TNOM = 27.000000

Using SPARSE 1.3 as Direct Linear Solver

Initial Transient Solution
--------------------------

Node                                   Voltage
----                                   -------
vdd                                    1.76804
a1                                           0
a2                                     1.76804
a3                                     1.76804
xu1.net_1_3                        3.55063e-08
xu1.net_0                          7.10125e-08
xu1.net_1_2                        3.55063e-08
xu1.net_1_1                        3.55063e-08
xu1.net_1_0                        3.55063e-08
xu1.net_0_0                        7.10125e-08
zn                                     1.76804
vfix_a3#branch                               0
vfix_a2#branch                               0
vin#branch                                   0
vdd#branch                        -2.72997e-11

 Reference value :  2.58375e-08
 Reference value :  5.48498e-08
 Reference value :  8.65348e-08
 Reference value :  1.16117e-07
 Reference value :  1.48212e-07
 Reference value :  1.79637e-07
 Reference value :  2.09880e-07
 Reference value :  2.37375e-07
 Reference value :  2.65997e-07
 Reference value :  2.94742e-07
 Reference value :  3.22212e-07
No. of Data Rows : 68030

  Measurements for Transient Analysis

tphl                =  1.03993e-09 targ=  2.60311e-08 trig=  2.49911e-08
tplh                =  1.27151e-09 targ=  9.82450e-08 trig=  9.69734e-08
i_vdd_avg           =  -6.84755e-07 from=  1.00000e-08 to=  3.30002e-07
power_avg_uw        =  1.21068e+00


Total analysis time (seconds) = 3.71456

Total elapsed time (seconds) = 3.780 

Total DRAM available = 16384.000 MB.
DRAM currently available =   85.172 MB.
Maximum ngspice program size =   14.984 MB.
Current ngspice program size =   14.984 MB.

