
Note: No compatibility mode selected!


Circuit: GF180MCU library cell oai21_1 A1_to_ZN__A2=0,B=1

Doing analysis at TEMP = -26.440359 and TNOM = 27.000000

Using SPARSE 1.3 as Direct Linear Solver

Initial Transient Solution
--------------------------

Node                                   Voltage
----                                   -------
vdd                                    1.76935
a1                                           0
a2                                           0
b                                      1.76935
zn                                     1.76935
xu1.net_0                           1.8185e-12
xu1.net_1                              1.76935
vfix_b#branch                                0
vfix_a2#branch                               0
vin#branch                                   0
vdd#branch                        -3.55907e-12

 Reference value :  7.35019e-08
 Reference value :  1.74781e-07
 Reference value :  2.77701e-07
No. of Data Rows : 68032

  Measurements for Transient Analysis

tphl                =  3.57476e-09 targ=  2.77745e-08 trig=  2.41997e-08
tplh                =  9.97398e-09 targ=  1.04573e-07 trig=  9.45991e-08
i_vdd_avg           =  -1.64640e-06 from=  1.00000e-08 to=  3.30001e-07
power_avg_uw        =  2.91306e+00


Total analysis time (seconds) = 1.12516

Total elapsed time (seconds) = 1.188 

Total DRAM available = 16384.000 MB.
DRAM currently available =  123.047 MB.
Maximum ngspice program size =   16.516 MB.
Current ngspice program size =   16.516 MB.

