
Note: No compatibility mode selected!


Circuit: GF180MCU library cell inv_1 I_to_ZN

Doing analysis at TEMP = 16.582485 and TNOM = 27.000000

Using SPARSE 1.3 as Direct Linear Solver

Initial Transient Solution
--------------------------

Node                                   Voltage
----                                   -------
vdd                                    1.72956
i                                            0
zn                                     1.72956
vin#branch                                   0
vdd#branch                         -1.7551e-12

 Reference value :  2.10141e-07
No. of Data Rows : 68032

  Measurements for Transient Analysis

tphl                =  2.58641e-09 targ=  2.78058e-08 trig=  2.52194e-08
tplh                =  5.60224e-09 targ=  1.03260e-07 trig=  9.76582e-08
i_vdd_avg           =  -1.45513e-06 from=  1.00000e-08 to=  3.30000e-07
power_avg_uw        =  2.51675e+00


Total analysis time (seconds) = 0.426128

Total elapsed time (seconds) = 0.476 

Total DRAM available = 16384.000 MB.
DRAM currently available =  126.141 MB.
Maximum ngspice program size =   15.172 MB.
Current ngspice program size =   15.172 MB.

