
Note: No compatibility mode selected!


Circuit: GF180MCU library cell aoi21_1 A1_to_ZN__A2=1,B=0

Doing analysis at TEMP = -31.387593 and TNOM = 27.000000

Using SPARSE 1.3 as Direct Linear Solver

Initial Transient Solution
--------------------------

Node                                   Voltage
----                                   -------
vdd                                    1.72846
a1                                           0
a2                                     1.72846
b                                            0
xu1.net_0                           1.3812e-14
zn                                     1.72846
xu1.net_1                              1.72846
vfix_b#branch                                0
vfix_a2#branch                               0
vin#branch                                   0
vdd#branch                        -3.47692e-12

 Reference value :  1.01536e-07
 Reference value :  2.10299e-07
 Reference value :  3.15186e-07
No. of Data Rows : 68030

  Measurements for Transient Analysis

tphl                =  4.05472e-09 targ=  2.82531e-08 trig=  2.41984e-08
tplh                =  1.26716e-08 targ=  1.07267e-07 trig=  9.45952e-08
i_vdd_avg           =  -1.07496e-06 from=  1.00000e-08 to=  3.30001e-07
power_avg_uw        =  1.85803e+00


Total analysis time (seconds) = 0.901974

Total elapsed time (seconds) = 0.961 

Total DRAM available = 16384.000 MB.
DRAM currently available =  123.062 MB.
Maximum ngspice program size =   15.266 MB.
Current ngspice program size =   15.266 MB.

