
Note: No compatibility mode selected!


Circuit: GF180MCU library cell nor2_4 A1_to_ZN__A2=0

Doing analysis at TEMP = -34.357036 and TNOM = 27.000000

Using SPARSE 1.3 as Direct Linear Solver

Initial Transient Solution
--------------------------

Node                                   Voltage
----                                   -------
vdd                                    1.65186
a1                                           0
a2                                           0
zn                                     1.65186
xu1.net_0_0                            1.65186
xu1.net_0_1                            1.65186
xu1.net_0_2                            1.65186
xu1.net_0_3                            1.65186
vfix_a2#branch                               0
vin#branch                                   0
vdd#branch                        -1.32949e-11

 Reference value :  3.53001e-08
 Reference value :  8.39251e-08
 Reference value :  1.29943e-07
 Reference value :  1.78983e-07
 Reference value :  2.22785e-07
 Reference value :  2.70083e-07
 Reference value :  3.18263e-07
No. of Data Rows : 68034

  Measurements for Transient Analysis

tphl                =  3.68933e-09 targ=  3.10981e-08 trig=  2.74088e-08
tplh                =  9.20269e-09 targ=  1.13429e-07 trig=  1.04226e-07
i_vdd_avg           =  -1.92015e-06 from=  1.00000e-08 to=  3.30003e-07
power_avg_uw        =  3.17181e+00


Total analysis time (seconds) = 2.31935

Total elapsed time (seconds) = 2.399 

Total DRAM available = 16384.000 MB.
DRAM currently available =  118.375 MB.
Maximum ngspice program size =   18.078 MB.
Current ngspice program size =   18.078 MB.

