
Note: No compatibility mode selected!


Circuit: GF180MCU library cell nand3_4 A1_to_ZN__A2=1,A3=1

Doing analysis at TEMP = -10.582484 and TNOM = 27.000000

Using SPARSE 1.3 as Direct Linear Solver

Initial Transient Solution
--------------------------

Node                                   Voltage
----                                   -------
vdd                                     1.6795
a1                                           0
a2                                      1.6795
a3                                      1.6795
xu1.net_1_3                        2.04423e-10
xu1.net_0                          4.08845e-10
xu1.net_1_2                        2.04423e-10
xu1.net_1_1                        2.04423e-10
xu1.net_1_0                        2.04423e-10
xu1.net_0_0                        4.08845e-10
zn                                      1.6795
vfix_a3#branch                               0
vfix_a2#branch                               0
vin#branch                                   0
vdd#branch                        -6.95435e-12

 Reference value :  2.73975e-08
 Reference value :  5.96714e-08
 Reference value :  8.94014e-08
 Reference value :  1.20710e-07
 Reference value :  1.49920e-07
 Reference value :  1.81095e-07
 Reference value :  2.11641e-07
 Reference value :  2.41841e-07
 Reference value :  2.71150e-07
 Reference value :  3.00200e-07
 Reference value :  3.29300e-07
No. of Data Rows : 68032

  Measurements for Transient Analysis

tphl                =  1.00920e-09 targ=  2.83311e-08 trig=  2.73219e-08
tplh                =  1.97578e-09 targ=  1.05942e-07 trig=  1.03966e-07
i_vdd_avg           =  -6.53633e-07 from=  1.00000e-08 to=  3.30000e-07
power_avg_uw        =  1.09778e+00


Total analysis time (seconds) = 3.68968

Total elapsed time (seconds) = 3.755 

Total DRAM available = 16384.000 MB.
DRAM currently available =   77.766 MB.
Maximum ngspice program size =   14.531 MB.
Current ngspice program size =   14.531 MB.

