
Note: No compatibility mode selected!


Circuit: GF180MCU library cell oai21_4 A1_to_ZN__A2=0,B=1

Doing analysis at TEMP = -18.535454 and TNOM = 27.000000

Using SPARSE 1.3 as Direct Linear Solver

Initial Transient Solution
--------------------------

Node                                   Voltage
----                                   -------
vdd                                    1.67007
a1                                           0
a2                                           0
b                                      1.67007
zn                                     1.67007
xu1.net_0                          4.89481e-12
xu1.net_1_0                            1.67007
xu1.net_1_1                            1.67007
xu1.net_1_2                            1.67007
xu1.net_1_3                            1.67007
vfix_b#branch                                0
vfix_a2#branch                               0
vin#branch                                   0
vdd#branch                        -1.34441e-11

 Reference value :  2.94425e-08
 Reference value :  6.43015e-08
 Reference value :  9.34765e-08
 Reference value :  1.24275e-07
 Reference value :  1.56465e-07
 Reference value :  1.86753e-07
 Reference value :  2.17601e-07
 Reference value :  2.45541e-07
 Reference value :  2.77940e-07
 Reference value :  3.07730e-07
 Reference value :  3.38455e-07
No. of Data Rows : 68032

  Measurements for Transient Analysis

tphl                =  6.79471e-10 targ=  2.78665e-08 trig=  2.71870e-08
tplh                =  1.89558e-09 targ=  1.05457e-07 trig=  1.03561e-07
i_vdd_avg           =  -1.58074e-07 from=  1.00000e-08 to=  3.30000e-07
power_avg_uw        =  2.63994e-01


Total analysis time (seconds) = 3.55231

Total elapsed time (seconds) = 3.614 

Total DRAM available = 16384.000 MB.
DRAM currently available =   97.953 MB.
Maximum ngspice program size =   13.906 MB.
Current ngspice program size =   13.906 MB.

