
Note: No compatibility mode selected!


Circuit: GF180MCU library cell nand2_1 A1_to_ZN__A2=1

Doing analysis at TEMP = 30.147616 and TNOM = 27.000000

Using SPARSE 1.3 as Direct Linear Solver

Initial Transient Solution
--------------------------

Node                                   Voltage
----                                   -------
vdd                                    1.78666
a1                                           0
a2                                     1.78666
xu1.net_0                          6.24353e-09
zn                                     1.78666
vfix_a2#branch                               0
vin#branch                                   0
vdd#branch                        -3.23254e-12

 Reference value :  1.05886e-07
 Reference value :  2.70941e-07
No. of Data Rows : 68030

  Measurements for Transient Analysis

tphl                =  3.62334e-09 targ=  2.79743e-08 trig=  2.43510e-08
tplh                =  5.03053e-09 targ=  1.00083e-07 trig=  9.50529e-08
i_vdd_avg           =  -2.27306e-06 from=  1.00000e-08 to=  3.30001e-07
power_avg_uw        =  4.06119e+00


Total analysis time (seconds) = 0.684956

Total elapsed time (seconds) = 0.764 

Total DRAM available = 16384.000 MB.
DRAM currently available =  108.656 MB.
Maximum ngspice program size =   18.438 MB.
Current ngspice program size =   18.438 MB.

