
Note: No compatibility mode selected!


Circuit: GF180MCU library cell aoi21_1 A1_to_ZN__A2=1,B=0

Doing analysis at TEMP = 115.334580 and TNOM = 27.000000

Using SPARSE 1.3 as Direct Linear Solver

Initial Transient Solution
--------------------------

Node                                   Voltage
----                                   -------
vdd                                     1.6477
a1                                           0
a2                                      1.6477
b                                            0
xu1.net_0                          7.81561e-08
zn                                      1.6477
xu1.net_1                               1.6477
vfix_b#branch                                0
vfix_a2#branch                               0
vin#branch                                   0
vdd#branch                        -2.40808e-11

 Reference value :  6.86629e-08
 Reference value :  1.75398e-07
 Reference value :  2.82658e-07
No. of Data Rows : 68032

  Measurements for Transient Analysis

tphl                =  5.79191e-09 targ=  3.27921e-08 trig=  2.70002e-08
tplh                =  1.39422e-08 targ=  1.16943e-07 trig=  1.03001e-07
i_vdd_avg           =  -1.40761e-06 from=  1.00000e-08 to=  3.30003e-07
power_avg_uw        =  2.31932e+00


Total analysis time (seconds) = 1.06015

Total elapsed time (seconds) = 1.126 

Total DRAM available = 16384.000 MB.
DRAM currently available =   90.688 MB.
Maximum ngspice program size =   16.625 MB.
Current ngspice program size =   16.625 MB.

