
Note: No compatibility mode selected!


Circuit: GF180MCU library cell oai21_4 A1_to_ZN__A2=0,B=1

Doing analysis at TEMP = 78.966738 and TNOM = 27.000000

Using SPARSE 1.3 as Direct Linear Solver

Initial Transient Solution
--------------------------

Node                                   Voltage
----                                   -------
vdd                                     1.7548
a1                                           0
a2                                           0
b                                       1.7548
zn                                      1.7548
xu1.net_0                          1.95065e-08
xu1.net_1_0                             1.7548
xu1.net_1_1                             1.7548
xu1.net_1_2                             1.7548
xu1.net_1_3                             1.7548
vfix_b#branch                                0
vfix_a2#branch                               0
vin#branch                                   0
vdd#branch                           -2.57e-11

 Reference value :  2.58525e-08
 Reference value :  5.87171e-08
 Reference value :  8.72071e-08
 Reference value :  1.17877e-07
 Reference value :  1.49362e-07
 Reference value :  1.79327e-07
 Reference value :  2.08887e-07
 Reference value :  2.41297e-07
 Reference value :  2.74012e-07
 Reference value :  3.05832e-07
 Reference value :  3.32802e-07
No. of Data Rows : 68032

  Measurements for Transient Analysis

tphl                =  1.75115e-09 targ=  2.70460e-08 trig=  2.52948e-08
tplh                =  4.29599e-09 targ=  1.02180e-07 trig=  9.78845e-08
i_vdd_avg           =  -1.83804e-06 from=  1.00000e-08 to=  3.30002e-07
power_avg_uw        =  3.22538e+00


Total analysis time (seconds) = 3.52729

Total elapsed time (seconds) = 3.597 

Total DRAM available = 16384.000 MB.
DRAM currently available =  106.984 MB.
Maximum ngspice program size =   13.750 MB.
Current ngspice program size =   13.750 MB.

