
Note: No compatibility mode selected!


Circuit: GF180MCU library cell nand2_4 A1_to_ZN__A2=1

Doing analysis at TEMP = -29.277549 and TNOM = 27.000000

Using SPARSE 1.3 as Direct Linear Solver

Initial Transient Solution
--------------------------

Node                                   Voltage
----                                   -------
vdd                                    1.62235
a1                                           0
a2                                     1.62235
xu1.net_0_0                        2.92898e-11
zn                                     1.62235
xu1.net_0_1                        2.92898e-11
xu1.net_0_2                        2.92898e-11
xu1.net_0_3                        2.92898e-11
vfix_a2#branch                               0
vin#branch                                   0
vdd#branch                        -6.55793e-12

 Reference value :  4.09831e-08
 Reference value :  9.11981e-08
 Reference value :  1.42974e-07
 Reference value :  1.97418e-07
 Reference value :  2.49858e-07
 Reference value :  2.99834e-07
No. of Data Rows : 68032

  Measurements for Transient Analysis

tphl                =  1.91981e-09 targ=  2.90026e-08 trig=  2.70828e-08
tplh                =  2.98270e-09 targ=  1.06231e-07 trig=  1.03248e-07
i_vdd_avg           =  -1.78855e-06 from=  1.00000e-08 to=  3.30004e-07
power_avg_uw        =  2.90166e+00


Total analysis time (seconds) = 2.03399

Total elapsed time (seconds) = 2.094 

Total DRAM available = 16384.000 MB.
DRAM currently available =  100.156 MB.
Maximum ngspice program size =   16.234 MB.
Current ngspice program size =   16.234 MB.

