
Note: No compatibility mode selected!


Circuit: GF180MCU library cell inv_1 I_to_ZN

Doing analysis at TEMP = 101.518460 and TNOM = 27.000000

Using SPARSE 1.3 as Direct Linear Solver

Initial Transient Solution
--------------------------

Node                                   Voltage
----                                   -------
vdd                                    1.68453
i                                            0
zn                                     1.68453
vin#branch                                   0
vdd#branch                        -2.03726e-12

 Reference value :  1.71470e-07
No. of Data Rows : 68034

  Measurements for Transient Analysis

tphl                =  1.64308e-09 targ=  2.70849e-08 trig=  2.54418e-08
tplh                =  3.08196e-09 targ=  1.01407e-07 trig=  9.83254e-08
i_vdd_avg           =  -3.29968e-07 from=  1.00000e-08 to=  3.30005e-07
power_avg_uw        =  5.55842e-01


Total analysis time (seconds) = 0.475012

Total elapsed time (seconds) = 0.556 

Total DRAM available = 16384.000 MB.
DRAM currently available =  145.141 MB.
Maximum ngspice program size =   19.031 MB.
Current ngspice program size =   19.031 MB.

