
Note: No compatibility mode selected!


Circuit: GF180MCU library cell mux2_1 I0_to_Z__I1=0,S=0

Doing analysis at TEMP = -3.516271 and TNOM = 27.000000

Using SPARSE 1.3 as Direct Linear Solver

Initial Transient Solution
--------------------------

Node                                   Voltage
----                                   -------
vdd                                     1.8413
i0                                           0
i1                                           0
s                                            0
xu1.int04                               1.8413
z                                  9.78491e-09
xu1.net_1                            0.0051241
xu1.net_3                              1.27176
xu1.sel1_n                              1.8413
xu1.net_0                               1.8413
xu1.net_2                               1.8413
vfix_s#branch                                0
vfix_i1#branch                               0
vin#branch                                   0
vdd#branch                        -1.01068e-11

 Reference value :  4.45128e-08
 Reference value :  1.05413e-07
 Reference value :  1.59673e-07
 Reference value :  2.14668e-07
 Reference value :  2.68663e-07
 Reference value :  3.26393e-07
No. of Data Rows : 68032

  Measurements for Transient Analysis

tplh                =  1.52277e-09 targ=  2.71829e-08 trig=  2.56602e-08
tphl                =  2.01899e-09 targ=  1.00999e-07 trig=  9.89805e-08
i_vdd_avg           =  -3.46742e-07 from=  1.00000e-08 to=  3.30003e-07
power_avg_uw        =  6.38457e-01


Total analysis time (seconds) = 1.91925

Total elapsed time (seconds) = 1.979 

Total DRAM available = 16384.000 MB.
DRAM currently available =  103.156 MB.
Maximum ngspice program size =   15.016 MB.
Current ngspice program size =   15.016 MB.

