
Note: No compatibility mode selected!


Circuit: GF180MCU library cell mux2_1 I0_to_Z__I1=0,S=0

Doing analysis at TEMP = -16.200989 and TNOM = 27.000000

Using SPARSE 1.3 as Direct Linear Solver

Initial Transient Solution
--------------------------

Node                                   Voltage
----                                   -------
vdd                                    1.90513
i0                                           0
i1                                           0
s                                            0
xu1.int04                              1.90513
z                                  1.27458e-08
xu1.net_1                          8.83284e-05
xu1.net_3                              1.21076
xu1.sel1_n                             1.90513
xu1.net_0                              1.90513
xu1.net_2                              1.90513
vfix_s#branch                                0
vfix_i1#branch                               0
vin#branch                                   0
vdd#branch                        -1.01825e-11

 Reference value :  4.05247e-08
 Reference value :  9.82547e-08
 Reference value :  1.53737e-07
 Reference value :  2.01975e-07
 Reference value :  2.58535e-07
 Reference value :  3.14142e-07
No. of Data Rows : 68030

  Measurements for Transient Analysis

tplh                =  1.00550e-08 targ=  3.66136e-08 trig=  2.65586e-08
tphl                =  6.35360e-09 targ=  1.08029e-07 trig=  1.01676e-07
i_vdd_avg           =  -2.35598e-06 from=  1.00000e-08 to=  3.30002e-07
power_avg_uw        =  4.48844e+00


Total analysis time (seconds) = 1.99614

Total elapsed time (seconds) = 2.078 

Total DRAM available = 16384.000 MB.
DRAM currently available =   87.844 MB.
Maximum ngspice program size =   17.359 MB.
Current ngspice program size =   17.359 MB.

