
Note: No compatibility mode selected!


Circuit: GF180MCU library cell nand2_1 A1_to_ZN__A2=1

Doing analysis at TEMP = 5.299726 and TNOM = 27.000000

Using SPARSE 1.3 as Direct Linear Solver

Initial Transient Solution
--------------------------

Node                                   Voltage
----                                   -------
vdd                                    1.89264
a1                                           0
a2                                     1.89264
xu1.net_0                          2.97503e-11
zn                                     1.89264
vfix_a2#branch                               0
vin#branch                                   0
vdd#branch                        -1.90859e-12

 Reference value :  1.17743e-07
 Reference value :  2.78788e-07
No. of Data Rows : 68032

  Measurements for Transient Analysis

tphl                =  5.27976e-09 targ=  3.37450e-08 trig=  2.84652e-08
tplh                =  7.39461e-09 targ=  1.14790e-07 trig=  1.07396e-07
i_vdd_avg           =  -1.79215e-06 from=  1.00000e-08 to=  3.30003e-07
power_avg_uw        =  3.39188e+00


Total analysis time (seconds) = 0.699618

Total elapsed time (seconds) = 0.768 

Total DRAM available = 16384.000 MB.
DRAM currently available =  120.531 MB.
Maximum ngspice program size =   17.656 MB.
Current ngspice program size =   17.656 MB.

