
Note: No compatibility mode selected!


Circuit: GF180MCU library cell oai21_4 A1_to_ZN__A2=0,B=1

Doing analysis at TEMP = -8.359301 and TNOM = 27.000000

Using SPARSE 1.3 as Direct Linear Solver

Initial Transient Solution
--------------------------

Node                                   Voltage
----                                   -------
vdd                                    1.66686
a1                                           0
a2                                           0
b                                      1.66686
zn                                     1.66686
xu1.net_0                          5.07869e-10
xu1.net_1_0                            1.66686
xu1.net_1_1                            1.66686
xu1.net_1_2                            1.66686
xu1.net_1_3                            1.66686
vfix_b#branch                                0
vfix_a2#branch                               0
vin#branch                                   0
vdd#branch                         -1.3895e-11

 Reference value :  2.10714e-08
 Reference value :  5.32511e-08
 Reference value :  8.47611e-08
 Reference value :  1.14505e-07
 Reference value :  1.46160e-07
 Reference value :  1.77040e-07
 Reference value :  2.07466e-07
 Reference value :  2.39116e-07
 Reference value :  2.65540e-07
 Reference value :  2.98335e-07
 Reference value :  3.28750e-07
No. of Data Rows : 68034

  Measurements for Transient Analysis

tphl                =  1.21867e-09 targ=  2.60905e-08 trig=  2.48718e-08
tplh                =  3.04513e-09 targ=  9.96605e-08 trig=  9.66154e-08
i_vdd_avg           =  -2.01089e-06 from=  1.00000e-08 to=  3.30005e-07
power_avg_uw        =  3.35187e+00


Total analysis time (seconds) = 3.6226

Total elapsed time (seconds) = 3.682 

Total DRAM available = 16384.000 MB.
DRAM currently available =  156.125 MB.
Maximum ngspice program size =   15.359 MB.
Current ngspice program size =   15.359 MB.

