
Note: No compatibility mode selected!


Circuit: GF180MCU library cell mux2_1 I0_to_Z__I1=0,S=0

Doing analysis at TEMP = -24.669806 and TNOM = 27.000000

Using SPARSE 1.3 as Direct Linear Solver

Initial Transient Solution
--------------------------

Node                                   Voltage
----                                   -------
vdd                                    1.76319
i0                                           0
i1                                           0
s                                            0
xu1.int04                              1.76319
z                                  1.29492e-08
xu1.net_1                          3.12568e-05
xu1.net_3                              1.08347
xu1.sel1_n                             1.76319
xu1.net_0                              1.76319
xu1.net_2                              1.76319
vfix_s#branch                                0
vfix_i1#branch                               0
vin#branch                                   0
vdd#branch                        -9.35154e-12

 Reference value :  4.38213e-08
 Reference value :  1.00635e-07
 Reference value :  1.54565e-07
 Reference value :  2.06171e-07
 Reference value :  2.62900e-07
 Reference value :  3.21145e-07
No. of Data Rows : 68032

  Measurements for Transient Analysis

tplh                =  4.15659e-09 targ=  2.96210e-08 trig=  2.54644e-08
tphl                =  3.71903e-09 targ=  1.02112e-07 trig=  9.83932e-08
i_vdd_avg           =  -6.30056e-07 from=  1.00000e-08 to=  3.30000e-07
power_avg_uw        =  1.11090e+00


Total analysis time (seconds) = 1.93479

Total elapsed time (seconds) = 2.000 

Total DRAM available = 16384.000 MB.
DRAM currently available =   92.562 MB.
Maximum ngspice program size =   15.578 MB.
Current ngspice program size =   15.578 MB.

