
Note: No compatibility mode selected!


Circuit: GF180MCU library cell aoi21_1 A1_to_ZN__A2=1,B=0

Doing analysis at TEMP = 4.999462 and TNOM = 27.000000

Using SPARSE 1.3 as Direct Linear Solver

Initial Transient Solution
--------------------------

Node                                   Voltage
----                                   -------
vdd                                     1.8848
a1                                           0
a2                                      1.8848
b                                            0
xu1.net_0                          8.29918e-10
zn                                      1.8848
xu1.net_1                               1.8848
vfix_b#branch                                0
vfix_a2#branch                               0
vin#branch                                   0
vdd#branch                        -4.27315e-12

 Reference value :  6.79876e-08
 Reference value :  1.74728e-07
 Reference value :  2.80238e-07
No. of Data Rows : 68032

  Measurements for Transient Analysis

tphl                =  1.52817e-09 targ=  2.80757e-08 trig=  2.65476e-08
tplh                =  3.10685e-09 targ=  1.04750e-07 trig=  1.01643e-07
i_vdd_avg           =  -5.85501e-07 from=  1.00000e-08 to=  3.30003e-07
power_avg_uw        =  1.10356e+00


Total analysis time (seconds) = 1.0336

Total elapsed time (seconds) = 1.120 

Total DRAM available = 16384.000 MB.
DRAM currently available =  107.922 MB.
Maximum ngspice program size =   16.875 MB.
Current ngspice program size =   16.875 MB.

