
Note: No compatibility mode selected!


Circuit: GF180MCU library cell xor2_4 A1_to_Z__A2=0

Doing analysis at TEMP = 106.964190 and TNOM = 27.000000

Using SPARSE 1.3 as Direct Linear Solver

Initial Transient Solution
--------------------------

Node                                   Voltage
----                                   -------
vdd                                     1.9508
a1                                           0
a2                                           0
xu1.net_2                             0.055793
xu1.i                                  1.95079
xu1.net_0                          1.11152e-06
xu1.z_neg                              1.95079
z                                  2.13612e-08
xu1.net_1                              1.95079
vfix_a2#branch                               0
vin#branch                                   0
vdd#branch                        -3.04234e-10

 Reference value :  2.61775e-08
 Reference value :  6.87664e-08
 Reference value :  1.12125e-07
 Reference value :  1.51410e-07
 Reference value :  1.92356e-07
 Reference value :  2.34076e-07
 Reference value :  2.78100e-07
 Reference value :  3.21435e-07
No. of Data Rows : 68032

  Measurements for Transient Analysis

tplh                =  9.09307e-10 targ=  2.70437e-08 trig=  2.61344e-08
tphl                =  1.81793e-09 targ=  1.02221e-07 trig=  1.00403e-07
i_vdd_avg           =  -7.16108e-07 from=  1.00000e-08 to=  3.30000e-07
power_avg_uw        =  1.39698e+00


Total analysis time (seconds) = 2.64656

Total elapsed time (seconds) = 2.725 

Total DRAM available = 16384.000 MB.
DRAM currently available =   78.750 MB.
Maximum ngspice program size =   17.141 MB.
Current ngspice program size =   17.141 MB.

