
Note: No compatibility mode selected!


Circuit: GF180MCU library cell nor2_1 A1_to_ZN__A2=0

Doing analysis at TEMP = 2.370244 and TNOM = 27.000000

Using SPARSE 1.3 as Direct Linear Solver

Initial Transient Solution
--------------------------

Node                                   Voltage
----                                   -------
vdd                                    1.79108
a1                                           0
a2                                           0
zn                                     1.79108
xu1.net_0                              1.79108
vfix_a2#branch                               0
vin#branch                                   0
vdd#branch                        -3.61204e-12

 Reference value :  1.05007e-07
 Reference value :  2.61467e-07
No. of Data Rows : 68032

  Measurements for Transient Analysis

tphl                =  3.06959e-09 targ=  2.92795e-08 trig=  2.62099e-08
tplh                =  8.24458e-09 targ=  1.08874e-07 trig=  1.00630e-07
i_vdd_avg           =  -1.16690e-06 from=  1.00000e-08 to=  3.30002e-07
power_avg_uw        =  2.09001e+00


Total analysis time (seconds) = 0.766978

Total elapsed time (seconds) = 0.827 

Total DRAM available = 16384.000 MB.
DRAM currently available =   84.797 MB.
Maximum ngspice program size =   14.859 MB.
Current ngspice program size =   14.859 MB.

