
Note: No compatibility mode selected!


Circuit: GF180MCU library cell inv_1 I_to_ZN

Doing analysis at TEMP = -21.709027 and TNOM = 27.000000

Using SPARSE 1.3 as Direct Linear Solver

Initial Transient Solution
--------------------------

Node                                   Voltage
----                                   -------
vdd                                    1.76488
i                                            0
zn                                     1.76488
vin#branch                                   0
vdd#branch                        -1.79205e-12

 Reference value :  2.67316e-07
No. of Data Rows : 68030

  Measurements for Transient Analysis

tphl                =  1.27049e-09 targ=  2.63463e-08 trig=  2.50759e-08
tplh                =  2.40367e-09 targ=  9.96312e-08 trig=  9.72276e-08
i_vdd_avg           =  -9.56850e-07 from=  1.00000e-08 to=  3.30001e-07
power_avg_uw        =  1.68873e+00


Total analysis time (seconds) = 0.269656

Total elapsed time (seconds) = 0.321 

Total DRAM available = 16384.000 MB.
DRAM currently available =  126.141 MB.
Maximum ngspice program size =   13.281 MB.
Current ngspice program size =   13.125 MB.

