
Note: No compatibility mode selected!


Circuit: GF180MCU library cell nand2_4 A1_to_ZN__A2=1

Doing analysis at TEMP = 19.083963 and TNOM = 27.000000

Using SPARSE 1.3 as Direct Linear Solver

Initial Transient Solution
--------------------------

Node                                   Voltage
----                                   -------
vdd                                    1.86138
a1                                           0
a2                                     1.86138
xu1.net_0_0                        2.66796e-09
zn                                     1.86138
xu1.net_0_1                        2.66796e-09
xu1.net_0_2                        2.66796e-09
xu1.net_0_3                        2.66796e-09
vfix_a2#branch                               0
vin#branch                                   0
vdd#branch                         -1.0136e-11

 Reference value :  3.21213e-08
 Reference value :  8.29163e-08
 Reference value :  1.34580e-07
 Reference value :  1.88478e-07
 Reference value :  2.41511e-07
 Reference value :  2.91150e-07
No. of Data Rows : 68032

  Measurements for Transient Analysis

tphl                =  1.55659e-09 targ=  2.78610e-08 trig=  2.63044e-08
tplh                =  2.31397e-09 targ=  1.03227e-07 trig=  1.00913e-07
i_vdd_avg           =  -2.38417e-06 from=  1.00000e-08 to=  3.30000e-07
power_avg_uw        =  4.43785e+00


Total analysis time (seconds) = 2.15555

Total elapsed time (seconds) = 2.224 

Total DRAM available = 16384.000 MB.
DRAM currently available =   94.016 MB.
Maximum ngspice program size =   17.375 MB.
Current ngspice program size =   17.375 MB.

