
Note: No compatibility mode selected!


Circuit: GF180MCU library cell inv_1 I_to_ZN

Doing analysis at TEMP = 88.674021 and TNOM = 27.000000

Using SPARSE 1.3 as Direct Linear Solver

Initial Transient Solution
--------------------------

Node                                   Voltage
----                                   -------
vdd                                    1.64215
i                                            0
zn                                     1.64215
vin#branch                                   0
vdd#branch                        -1.80636e-12

 Reference value :  2.00908e-07
No. of Data Rows : 68032

  Measurements for Transient Analysis

tphl                =  7.33362e-09 targ=  3.47813e-08 trig=  2.74477e-08
tplh                =  1.66580e-08 targ=  1.21001e-07 trig=  1.04343e-07
i_vdd_avg           =  -2.01228e-06 from=  1.00000e-08 to=  3.30003e-07
power_avg_uw        =  3.30446e+00


Total analysis time (seconds) = 0.503763

Total elapsed time (seconds) = 0.571 

Total DRAM available = 16384.000 MB.
DRAM currently available =  145.141 MB.
Maximum ngspice program size =   16.969 MB.
Current ngspice program size =   16.969 MB.

