
Note: No compatibility mode selected!


Circuit: GF180MCU library cell mux2_4 I0_to_Z__I1=0,S=0

Doing analysis at TEMP = 99.495429 and TNOM = 27.000000

Using SPARSE 1.3 as Direct Linear Solver

Initial Transient Solution
--------------------------

Node                                   Voltage
----                                   -------
vdd                                    1.94268
i0                                           0
i1                                           0
s                                            0
xu1.int04                              1.94267
z                                   1.6951e-08
xu1.net_1                            0.0530737
xu1.net_3                              1.45855
xu1.sel1_n                             1.94268
xu1.net_0                              1.94268
xu1.net_2                              1.94268
vfix_s#branch                                0
vfix_i1#branch                               0
vin#branch                                   0
vdd#branch                        -1.85367e-10

 Reference value :  2.82049e-08
 Reference value :  6.69999e-08
 Reference value :  1.07317e-07
 Reference value :  1.46632e-07
 Reference value :  1.87000e-07
 Reference value :  2.21770e-07
 Reference value :  2.60232e-07
 Reference value :  3.01927e-07
No. of Data Rows : 68030

  Measurements for Transient Analysis

tplh                =  1.55148e-09 targ=  2.66552e-08 trig=  2.51037e-08
tphl                =  1.80970e-09 targ=  9.91208e-08 trig=  9.73111e-08
i_vdd_avg           =  -2.21868e-06 from=  1.00000e-08 to=  3.30002e-07
power_avg_uw        =  4.31018e+00


Total analysis time (seconds) = 2.77619

Total elapsed time (seconds) = 2.839 

Total DRAM available = 16384.000 MB.
DRAM currently available =   85.484 MB.
Maximum ngspice program size =   14.062 MB.
Current ngspice program size =   14.062 MB.

