
Note: No compatibility mode selected!


Circuit: GF180MCU library cell mux2_1 I0_to_Z__I1=0,S=0

Doing analysis at TEMP = 42.062185 and TNOM = 27.000000

Using SPARSE 1.3 as Direct Linear Solver

Initial Transient Solution
--------------------------

Node                                   Voltage
----                                   -------
vdd                                     1.8946
i0                                           0
i1                                           0
s                                            0
xu1.int04                               1.8946
z                                  1.53217e-08
xu1.net_1                            0.0108513
xu1.net_3                              1.29769
xu1.sel1_n                              1.8946
xu1.net_0                               1.8946
xu1.net_2                               1.8946
vfix_s#branch                                0
vfix_i1#branch                               0
vin#branch                                   0
vdd#branch                        -1.04328e-11

 Reference value :  3.87403e-08
 Reference value :  9.37403e-08
 Reference value :  1.49738e-07
 Reference value :  2.00740e-07
 Reference value :  2.56510e-07
 Reference value :  3.15833e-07
No. of Data Rows : 68034

  Measurements for Transient Analysis

tplh                =  3.27252e-09 targ=  3.08089e-08 trig=  2.75364e-08
tphl                =  4.06027e-09 targ=  1.08669e-07 trig=  1.04609e-07
i_vdd_avg           =  -5.02669e-07 from=  1.00000e-08 to=  3.30003e-07
power_avg_uw        =  9.52356e-01


Total analysis time (seconds) = 1.99108

Total elapsed time (seconds) = 2.056 

Total DRAM available = 16384.000 MB.
DRAM currently available =  103.156 MB.
Maximum ngspice program size =   15.562 MB.
Current ngspice program size =   15.562 MB.

