
Note: No compatibility mode selected!


Circuit: GF180MCU library cell xor2_4 A1_to_Z__A2=0

Doing analysis at TEMP = -1.297250 and TNOM = 27.000000

Using SPARSE 1.3 as Direct Linear Solver

Initial Transient Solution
--------------------------

Node                                   Voltage
----                                   -------
vdd                                    1.84141
a1                                           0
a2                                           0
xu1.net_2                            0.0060247
xu1.i                                  1.84141
xu1.net_0                          3.09749e-11
xu1.z_neg                              1.84141
z                                  9.85358e-09
xu1.net_1                              1.84141
vfix_a2#branch                               0
vin#branch                                   0
vdd#branch                        -1.33493e-11

 Reference value :  2.82925e-08
 Reference value :  7.12534e-08
 Reference value :  1.12008e-07
 Reference value :  1.53634e-07
 Reference value :  1.92938e-07
 Reference value :  2.33423e-07
 Reference value :  2.73633e-07
 Reference value :  3.15834e-07
No. of Data Rows : 68032

  Measurements for Transient Analysis

tplh                =  2.23583e-09 targ=  3.14438e-08 trig=  2.92080e-08
tphl                =  4.07228e-09 targ=  1.13696e-07 trig=  1.09624e-07
i_vdd_avg           =  -9.54724e-07 from=  1.00000e-08 to=  3.30004e-07
power_avg_uw        =  1.75804e+00


Total analysis time (seconds) = 2.73265

Total elapsed time (seconds) = 2.817 

Total DRAM available = 16384.000 MB.
DRAM currently available =  128.172 MB.
Maximum ngspice program size =   17.812 MB.
Current ngspice program size =   17.812 MB.

