
Note: No compatibility mode selected!


Circuit: GF180MCU library cell xor2_4 A1_to_Z__A2=0

Doing analysis at TEMP = 38.174010 and TNOM = 27.000000

Using SPARSE 1.3 as Direct Linear Solver

Initial Transient Solution
--------------------------

Node                                   Voltage
----                                   -------
vdd                                    1.90606
a1                                           0
a2                                           0
xu1.net_2                           0.00894267
xu1.i                                  1.90606
xu1.net_0                          6.44944e-11
xu1.z_neg                              1.90606
z                                   1.5112e-08
xu1.net_1                              1.90606
vfix_a2#branch                               0
vin#branch                                   0
vdd#branch                        -1.37672e-11

 Reference value :  2.77875e-08
 Reference value :  6.90334e-08
 Reference value :  1.11683e-07
 Reference value :  1.55754e-07
 Reference value :  1.97873e-07
 Reference value :  2.37098e-07
 Reference value :  2.80674e-07
 Reference value :  3.25819e-07
No. of Data Rows : 68032

  Measurements for Transient Analysis

tplh                =  4.70238e-09 targ=  3.44604e-08 trig=  2.97580e-08
tphl                =  6.29076e-09 targ=  1.17565e-07 trig=  1.11274e-07
i_vdd_avg           =  -2.07564e-06 from=  1.00000e-08 to=  3.30004e-07
power_avg_uw        =  3.95629e+00


Total analysis time (seconds) = 2.57614

Total elapsed time (seconds) = 2.649 

Total DRAM available = 16384.000 MB.
DRAM currently available =  120.328 MB.
Maximum ngspice program size =   17.406 MB.
Current ngspice program size =   17.406 MB.

