
Note: No compatibility mode selected!


Circuit: GF180MCU library cell oai21_1 A1_to_ZN__A2=0,B=1

Doing analysis at TEMP = 67.656361 and TNOM = 27.000000

Using SPARSE 1.3 as Direct Linear Solver

Initial Transient Solution
--------------------------

Node                                   Voltage
----                                   -------
vdd                                    1.67616
a1                                           0
a2                                           0
b                                      1.67616
zn                                     1.67616
xu1.net_0                          9.67726e-09
xu1.net_1                              1.67616
vfix_b#branch                                0
vfix_a2#branch                               0
vin#branch                                   0
vdd#branch                        -4.76282e-12

 Reference value :  8.00520e-08
 Reference value :  1.77657e-07
 Reference value :  2.88077e-07
No. of Data Rows : 68032

  Measurements for Transient Analysis

tphl                =  5.71002e-09 targ=  3.05298e-08 trig=  2.48198e-08
tplh                =  1.55066e-08 targ=  1.11966e-07 trig=  9.64593e-08
i_vdd_avg           =  -1.85388e-06 from=  1.00000e-08 to=  3.30002e-07
power_avg_uw        =  3.10740e+00


Total analysis time (seconds) = 1.07456

Total elapsed time (seconds) = 1.139 

Total DRAM available = 16384.000 MB.
DRAM currently available =  146.828 MB.
Maximum ngspice program size =   14.312 MB.
Current ngspice program size =   14.312 MB.

