
Note: No compatibility mode selected!


Circuit: GF180MCU library cell oai21_4 A1_to_ZN__A2=0,B=1

Doing analysis at TEMP = 57.342314 and TNOM = 27.000000

Using SPARSE 1.3 as Direct Linear Solver

Initial Transient Solution
--------------------------

Node                                   Voltage
----                                   -------
vdd                                    1.89768
a1                                           0
a2                                           0
b                                      1.89768
zn                                     1.89768
xu1.net_0                          7.68777e-08
xu1.net_1_0                            1.89768
xu1.net_1_1                            1.89768
xu1.net_1_2                            1.89768
xu1.net_1_3                            1.89768
vfix_b#branch                                0
vfix_a2#branch                               0
vin#branch                                   0
vdd#branch                        -8.55559e-11

 Reference value :  2.65675e-08
 Reference value :  5.78864e-08
 Reference value :  8.82964e-08
 Reference value :  1.20105e-07
 Reference value :  1.53130e-07
 Reference value :  1.85108e-07
 Reference value :  2.16716e-07
 Reference value :  2.48791e-07
 Reference value :  2.75511e-07
 Reference value :  3.04395e-07
 Reference value :  3.35045e-07
No. of Data Rows : 68032

  Measurements for Transient Analysis

tphl                =  1.48810e-09 targ=  3.11976e-08 trig=  2.97095e-08
tplh                =  4.42146e-09 targ=  1.15550e-07 trig=  1.11128e-07
i_vdd_avg           =  -2.17217e-06 from=  1.00000e-08 to=  3.30000e-07
power_avg_uw        =  4.12208e+00


Total analysis time (seconds) = 3.46234

Total elapsed time (seconds) = 3.530 

Total DRAM available = 16384.000 MB.
DRAM currently available =  124.828 MB.
Maximum ngspice program size =   16.125 MB.
Current ngspice program size =   16.125 MB.

