
Note: No compatibility mode selected!


Circuit: GF180MCU library cell nand2_1 A1_to_ZN__A2=1

Doing analysis at TEMP = -11.769600 and TNOM = 27.000000

Using SPARSE 1.3 as Direct Linear Solver

Initial Transient Solution
--------------------------

Node                                   Voltage
----                                   -------
vdd                                    1.64398
a1                                           0
a2                                     1.64398
xu1.net_0                          5.35881e-12
zn                                     1.64398
vfix_a2#branch                               0
vin#branch                                   0
vdd#branch                        -1.65491e-12

 Reference value :  1.07513e-07
 Reference value :  2.77143e-07
No. of Data Rows : 68032

  Measurements for Transient Analysis

tphl                =  4.18926e-09 targ=  3.15620e-08 trig=  2.73727e-08
tplh                =  6.08415e-09 targ=  1.10202e-07 trig=  1.04118e-07
i_vdd_avg           =  -9.35408e-07 from=  1.00000e-08 to=  3.30003e-07
power_avg_uw        =  1.53779e+00


Total analysis time (seconds) = 0.678424

Total elapsed time (seconds) = 0.761 

Total DRAM available = 16384.000 MB.
DRAM currently available =  120.531 MB.
Maximum ngspice program size =   17.422 MB.
Current ngspice program size =   17.422 MB.

