
Note: No compatibility mode selected!


Circuit: GF180MCU library cell nand2_4 A1_to_ZN__A2=1

Doing analysis at TEMP = 46.718621 and TNOM = 27.000000

Using SPARSE 1.3 as Direct Linear Solver

Initial Transient Solution
--------------------------

Node                                   Voltage
----                                   -------
vdd                                    1.74584
a1                                           0
a2                                     1.74584
xu1.net_0_0                        7.16473e-11
zn                                     1.74584
xu1.net_0_1                        7.16473e-11
xu1.net_0_2                        7.16473e-11
xu1.net_0_3                        7.16473e-11
vfix_a2#branch                               0
vin#branch                                   0
vdd#branch                        -7.05578e-12

 Reference value :  3.27574e-08
 Reference value :  7.91724e-08
 Reference value :  1.30467e-07
 Reference value :  1.79702e-07
 Reference value :  2.29782e-07
 Reference value :  2.81312e-07
 Reference value :  3.31587e-07
No. of Data Rows : 68032

  Measurements for Transient Analysis

tphl                =  1.04752e-09 targ=  2.75199e-08 trig=  2.64724e-08
tplh                =  1.75558e-09 targ=  1.03173e-07 trig=  1.01417e-07
i_vdd_avg           =  -1.99872e-07 from=  1.00000e-08 to=  3.30002e-07
power_avg_uw        =  3.48946e-01


Total analysis time (seconds) = 2.18015

Total elapsed time (seconds) = 2.248 

Total DRAM available = 16384.000 MB.
DRAM currently available =   94.203 MB.
Maximum ngspice program size =   18.312 MB.
Current ngspice program size =   18.312 MB.

