
Note: No compatibility mode selected!


Circuit: GF180MCU library cell nor2_1 A1_to_ZN__A2=0

Doing analysis at TEMP = 84.369450 and TNOM = 27.000000

Using SPARSE 1.3 as Direct Linear Solver

Initial Transient Solution
--------------------------

Node                                   Voltage
----                                   -------
vdd                                    1.90906
a1                                           0
a2                                           0
zn                                     1.90906
xu1.net_0                              1.90906
vfix_a2#branch                               0
vin#branch                                   0
vdd#branch                        -4.11299e-12

 Reference value :  1.23733e-07
 Reference value :  2.69103e-07
No. of Data Rows : 68032

  Measurements for Transient Analysis

tphl                =  5.58216e-09 targ=  3.28423e-08 trig=  2.72601e-08
tplh                =  1.57112e-08 targ=  1.19492e-07 trig=  1.03780e-07
i_vdd_avg           =  -1.56281e-06 from=  1.00000e-08 to=  3.30003e-07
power_avg_uw        =  2.98349e+00


Total analysis time (seconds) = 0.70957

Total elapsed time (seconds) = 0.765 

Total DRAM available = 16384.000 MB.
DRAM currently available =   93.203 MB.
Maximum ngspice program size =   14.672 MB.
Current ngspice program size =   14.672 MB.

