
Note: No compatibility mode selected!


Circuit: GF180MCU library cell nand3_1 A1_to_ZN__A2=1,A3=1

Doing analysis at TEMP = -35.476682 and TNOM = 27.000000

Using SPARSE 1.3 as Direct Linear Solver

Initial Transient Solution
--------------------------

Node                                   Voltage
----                                   -------
vdd                                    1.77086
a1                                           0
a2                                     1.77086
a3                                     1.77086
xu1.net_1                          2.81699e-13
xu1.net_0                          5.63397e-13
zn                                     1.77086
vfix_a3#branch                               0
vfix_a2#branch                               0
vin#branch                                   0
vdd#branch                        -1.78092e-12

 Reference value :  9.74175e-08
 Reference value :  2.16953e-07
 Reference value :  3.19048e-07
No. of Data Rows : 68032

  Measurements for Transient Analysis

tphl                =  6.50690e-09 targ=  3.55494e-08 trig=  2.90425e-08
tplh                =  8.27875e-09 targ=  1.17406e-07 trig=  1.09128e-07
i_vdd_avg           =  -1.43209e-06 from=  1.00000e-08 to=  3.30003e-07
power_avg_uw        =  2.53603e+00


Total analysis time (seconds) = 0.891022

Total elapsed time (seconds) = 0.956 

Total DRAM available = 16384.000 MB.
DRAM currently available =  157.578 MB.
Maximum ngspice program size =   13.250 MB.
Current ngspice program size =   13.250 MB.

