
Note: No compatibility mode selected!


Circuit: GF180MCU library cell nor2_1 A1_to_ZN__A2=0

Doing analysis at TEMP = 11.778765 and TNOM = 27.000000

Using SPARSE 1.3 as Direct Linear Solver

Initial Transient Solution
--------------------------

Node                                   Voltage
----                                   -------
vdd                                    1.73719
a1                                           0
a2                                           0
zn                                     1.73719
xu1.net_0                              1.73719
vfix_a2#branch                               0
vin#branch                                   0
vdd#branch                        -3.51737e-12

 Reference value :  1.02070e-07
 Reference value :  2.57980e-07
No. of Data Rows : 68034

  Measurements for Transient Analysis

tphl                =  5.21971e-09 targ=  3.27311e-08 trig=  2.75114e-08
tplh                =  1.46550e-08 targ=  1.19189e-07 trig=  1.04534e-07
i_vdd_avg           =  -1.87160e-06 from=  1.00000e-08 to=  3.30003e-07
power_avg_uw        =  3.25132e+00


Total analysis time (seconds) = 0.740702

Total elapsed time (seconds) = 0.820 

Total DRAM available = 16384.000 MB.
DRAM currently available =   93.203 MB.
Maximum ngspice program size =   17.766 MB.
Current ngspice program size =   17.766 MB.

