
Note: No compatibility mode selected!


Circuit: GF180MCU library cell nor2_1 A1_to_ZN__A2=0

Doing analysis at TEMP = 59.305331 and TNOM = 27.000000

Using SPARSE 1.3 as Direct Linear Solver

Initial Transient Solution
--------------------------

Node                                   Voltage
----                                   -------
vdd                                     1.9548
a1                                           0
a2                                           0
zn                                      1.9548
xu1.net_0                               1.9548
vfix_a2#branch                               0
vin#branch                                   0
vdd#branch                        -4.89871e-12

 Reference value :  9.95306e-08
 Reference value :  2.47211e-07
No. of Data Rows : 68034

  Measurements for Transient Analysis

tphl                =  4.58682e-09 targ=  3.45609e-08 trig=  2.99741e-08
tplh                =  9.77249e-09 targ=  1.21695e-07 trig=  1.11922e-07
i_vdd_avg           =  -1.38883e-06 from=  1.00000e-08 to=  3.30004e-07
power_avg_uw        =  2.71489e+00


Total analysis time (seconds) = 0.79137

Total elapsed time (seconds) = 0.861 

Total DRAM available = 16384.000 MB.
DRAM currently available =   93.203 MB.
Maximum ngspice program size =   15.859 MB.
Current ngspice program size =   15.859 MB.

