
Note: No compatibility mode selected!


Circuit: GF180MCU library cell inv_4 I_to_ZN

Doing analysis at TEMP = 123.336290 and TNOM = 27.000000

Using SPARSE 1.3 as Direct Linear Solver

Initial Transient Solution
--------------------------

Node                                   Voltage
----                                   -------
vdd                                     1.9402
i                                            0
zn                                      1.9402
vin#branch                                   0
vdd#branch                        -9.34811e-10

 Reference value :  6.78813e-08
 Reference value :  1.62830e-07
 Reference value :  2.64665e-07
No. of Data Rows : 68032

  Measurements for Transient Analysis

tphl                =  7.42898e-10 targ=  2.54298e-08 trig=  2.46869e-08
tplh                =  1.33668e-09 targ=  9.73974e-08 trig=  9.60607e-08
i_vdd_avg           =  -2.30472e-06 from=  1.00000e-08 to=  3.30000e-07
power_avg_uw        =  4.47161e+00


Total analysis time (seconds) = 1.18145

Total elapsed time (seconds) = 1.240 

Total DRAM available = 16384.000 MB.
DRAM currently available =  127.641 MB.
Maximum ngspice program size =   17.312 MB.
Current ngspice program size =   17.312 MB.

