
Note: No compatibility mode selected!


Circuit: GF180MCU library cell oai21_4 A1_to_ZN__A2=0,B=1

Doing analysis at TEMP = -25.350098 and TNOM = 27.000000

Using SPARSE 1.3 as Direct Linear Solver

Initial Transient Solution
--------------------------

Node                                   Voltage
----                                   -------
vdd                                    1.82995
a1                                           0
a2                                           0
b                                      1.82995
zn                                     1.82995
xu1.net_0                          6.16706e-14
xu1.net_1_0                            1.82995
xu1.net_1_1                            1.82995
xu1.net_1_2                            1.82995
xu1.net_1_3                            1.82995
vfix_b#branch                                0
vfix_a2#branch                               0
vin#branch                                   0
vdd#branch                        -1.47196e-11

 Reference value :  3.05204e-08
 Reference value :  6.35654e-08
 Reference value :  9.70883e-08
 Reference value :  1.29663e-07
 Reference value :  1.60623e-07
 Reference value :  1.92085e-07
 Reference value :  2.22110e-07
 Reference value :  2.51265e-07
 Reference value :  2.78868e-07
 Reference value :  3.09273e-07
No. of Data Rows : 68034

  Measurements for Transient Analysis

tphl                =  5.73809e-10 targ=  2.49253e-08 trig=  2.43515e-08
tplh                =  1.47190e-09 targ=  9.65263e-08 trig=  9.50544e-08
i_vdd_avg           =  -4.76795e-07 from=  1.00000e-08 to=  3.30003e-07
power_avg_uw        =  8.72511e-01


Total analysis time (seconds) = 3.38776

Total elapsed time (seconds) = 3.450 

Total DRAM available = 16384.000 MB.
DRAM currently available =  106.250 MB.
Maximum ngspice program size =   15.391 MB.
Current ngspice program size =   15.391 MB.

