
Note: No compatibility mode selected!


Circuit: GF180MCU library cell nand3_1 A1_to_ZN__A2=1,A3=1

Doing analysis at TEMP = -12.705174 and TNOM = 27.000000

Using SPARSE 1.3 as Direct Linear Solver

Initial Transient Solution
--------------------------

Node                                   Voltage
----                                   -------
vdd                                    1.62581
a1                                           0
a2                                     1.62581
a3                                     1.62581
xu1.net_1                           1.6789e-10
xu1.net_0                          3.35781e-10
zn                                     1.62581
vfix_a3#branch                               0
vfix_a2#branch                               0
vin#branch                                   0
vdd#branch                        -1.67478e-12

 Reference value :  8.41295e-08
 Reference value :  1.95259e-07
 Reference value :  2.93936e-07
No. of Data Rows : 68030

  Measurements for Transient Analysis

tphl                =  5.56387e-09 targ=  3.00624e-08 trig=  2.44985e-08
tplh                =  6.51416e-09 targ=  1.02010e-07 trig=  9.54955e-08
i_vdd_avg           =  -2.06905e-06 from=  1.00000e-08 to=  3.30001e-07
power_avg_uw        =  3.36388e+00


Total analysis time (seconds) = 1.02052

Total elapsed time (seconds) = 1.094 

Total DRAM available = 16384.000 MB.
DRAM currently available =   93.547 MB.
Maximum ngspice program size =   17.047 MB.
Current ngspice program size =   17.047 MB.

