
Note: No compatibility mode selected!


Circuit: GF180MCU library cell nand3_4 A1_to_ZN__A2=1,A3=1

Doing analysis at TEMP = 69.043315 and TNOM = 27.000000

Using SPARSE 1.3 as Direct Linear Solver

Initial Transient Solution
--------------------------

Node                                   Voltage
----                                   -------
vdd                                    1.69713
a1                                           0
a2                                     1.69713
a3                                     1.69713
xu1.net_1_3                        5.26596e-09
xu1.net_0                          1.05319e-08
xu1.net_1_2                        5.26596e-09
xu1.net_1_1                        5.26596e-09
xu1.net_1_0                        5.26596e-09
xu1.net_0_0                        1.05319e-08
zn                                     1.69713
vfix_a3#branch                               0
vfix_a2#branch                               0
vin#branch                                   0
vdd#branch                        -9.89544e-12

 Reference value :  2.76675e-08
 Reference value :  5.88452e-08
 Reference value :  8.92152e-08
 Reference value :  1.19678e-07
 Reference value :  1.49488e-07
 Reference value :  1.79423e-07
 Reference value :  2.10550e-07
 Reference value :  2.41125e-07
 Reference value :  2.72183e-07
 Reference value :  3.02428e-07
 Reference value :  3.30278e-07
No. of Data Rows : 68034

  Measurements for Transient Analysis

tphl                =  1.65176e-09 targ=  2.76631e-08 trig=  2.60113e-08
tplh                =  2.14558e-09 targ=  1.02180e-07 trig=  1.00034e-07
i_vdd_avg           =  -8.31224e-07 from=  1.00000e-08 to=  3.30003e-07
power_avg_uw        =  1.41070e+00


Total analysis time (seconds) = 3.61769

Total elapsed time (seconds) = 3.682 

Total DRAM available = 16384.000 MB.
DRAM currently available =   96.062 MB.
Maximum ngspice program size =   16.078 MB.
Current ngspice program size =   16.078 MB.

