
Note: No compatibility mode selected!


Circuit: GF180MCU library cell aoi21_4 A1_to_ZN__A2=1,B=0

Doing analysis at TEMP = 92.070232 and TNOM = 27.000000

Using SPARSE 1.3 as Direct Linear Solver

Initial Transient Solution
--------------------------

Node                                   Voltage
----                                   -------
vdd                                    1.91076
a1                                           0
a2                                     1.91076
b                                            0
xu1.net_0_0                        2.06107e-08
zn                                     1.91076
xu1.net_0_1                        2.06107e-08
xu1.net_0_2                        2.06107e-08
xu1.net_0_3                        2.06107e-08
xu1.net_1                              1.91076
vfix_b#branch                                0
vfix_a2#branch                               0
vin#branch                                   0
vdd#branch                        -4.36622e-11

 Reference value :  2.10764e-08
 Reference value :  5.17583e-08
 Reference value :  8.32533e-08
 Reference value :  1.14494e-07
 Reference value :  1.45159e-07
 Reference value :  1.77414e-07
 Reference value :  2.09498e-07
 Reference value :  2.39748e-07
 Reference value :  2.69199e-07
 Reference value :  3.00909e-07
 Reference value :  3.32304e-07
No. of Data Rows : 68032

  Measurements for Transient Analysis

tphl                =  1.69947e-09 targ=  2.72224e-08 trig=  2.55229e-08
tplh                =  3.60514e-09 targ=  1.02174e-07 trig=  9.85687e-08
i_vdd_avg           =  -2.05211e-06 from=  1.00000e-08 to=  3.30004e-07
power_avg_uw        =  3.92108e+00


Total analysis time (seconds) = 3.48955

Total elapsed time (seconds) = 3.558 

Total DRAM available = 16384.000 MB.
DRAM currently available =  130.188 MB.
Maximum ngspice program size =   17.969 MB.
Current ngspice program size =   17.969 MB.

