
Note: No compatibility mode selected!


Circuit: GF180MCU library cell nor2_4 A1_to_ZN__A2=0

Doing analysis at TEMP = 78.819821 and TNOM = 27.000000

Using SPARSE 1.3 as Direct Linear Solver

Initial Transient Solution
--------------------------

Node                                   Voltage
----                                   -------
vdd                                    1.66035
a1                                           0
a2                                           0
zn                                     1.66035
xu1.net_0_0                            1.66035
xu1.net_0_1                            1.66035
xu1.net_0_2                            1.66035
xu1.net_0_3                            1.66035
vfix_a2#branch                               0
vin#branch                                   0
vdd#branch                        -1.40611e-11

 Reference value :  3.07316e-08
 Reference value :  7.45116e-08
 Reference value :  1.21086e-07
 Reference value :  1.64051e-07
 Reference value :  2.12267e-07
 Reference value :  2.62901e-07
 Reference value :  3.11531e-07
No. of Data Rows : 68032

  Measurements for Transient Analysis

tphl                =  2.46244e-09 targ=  2.82345e-08 trig=  2.57721e-08
tplh                =  6.95366e-09 targ=  1.06270e-07 trig=  9.93162e-08
i_vdd_avg           =  -1.59600e-06 from=  1.00000e-08 to=  3.30001e-07
power_avg_uw        =  2.64992e+00


Total analysis time (seconds) = 2.4022

Total elapsed time (seconds) = 2.470 

Total DRAM available = 16384.000 MB.
DRAM currently available =  131.219 MB.
Maximum ngspice program size =   17.547 MB.
Current ngspice program size =   17.547 MB.

