
Note: No compatibility mode selected!


Circuit: GF180MCU library cell mux2_1 I0_to_Z__I1=0,S=0

Doing analysis at TEMP = 118.590990 and TNOM = 27.000000

Using SPARSE 1.3 as Direct Linear Solver

Initial Transient Solution
--------------------------

Node                                   Voltage
----                                   -------
vdd                                    1.63342
i0                                           0
i1                                           0
s                                            0
xu1.int04                              1.63342
z                                  2.01224e-08
xu1.net_1                            0.0399423
xu1.net_3                              1.18619
xu1.sel1_n                             1.63342
xu1.net_0                              1.63342
xu1.net_2                              1.63342
vfix_s#branch                                0
vfix_i1#branch                               0
vin#branch                                   0
vdd#branch                        -1.79295e-11

 Reference value :  5.09882e-08
 Reference value :  1.06434e-07
 Reference value :  1.57559e-07
 Reference value :  2.13828e-07
 Reference value :  2.71934e-07
 Reference value :  3.30184e-07
No. of Data Rows : 68032

  Measurements for Transient Analysis

tplh                =  7.72469e-09 targ=  3.19751e-08 trig=  2.42504e-08
tphl                =  5.26519e-09 targ=  1.00016e-07 trig=  9.47511e-08
i_vdd_avg           =  -9.72052e-07 from=  1.00000e-08 to=  3.30004e-07
power_avg_uw        =  1.58777e+00


Total analysis time (seconds) = 1.9495

Total elapsed time (seconds) = 2.029 

Total DRAM available = 16384.000 MB.
DRAM currently available =   95.703 MB.
Maximum ngspice program size =   18.266 MB.
Current ngspice program size =   18.266 MB.

