
Note: No compatibility mode selected!


Circuit: GF180MCU library cell inv_1 I_to_ZN

Doing analysis at TEMP = -20.867010 and TNOM = 27.000000

Using SPARSE 1.3 as Direct Linear Solver

Initial Transient Solution
--------------------------

Node                                   Voltage
----                                   -------
vdd                                    1.94813
i                                            0
zn                                     1.94813
vin#branch                                   0
vdd#branch                        -1.95852e-12

 Reference value :  1.96807e-07
No. of Data Rows : 68032

  Measurements for Transient Analysis

tphl                =  9.04676e-10 targ=  2.51270e-08 trig=  2.42223e-08
tplh                =  1.94292e-09 targ=  9.66099e-08 trig=  9.46670e-08
i_vdd_avg           =  -8.36078e-07 from=  1.00000e-08 to=  3.30002e-07
power_avg_uw        =  1.62879e+00


Total analysis time (seconds) = 0.436769

Total elapsed time (seconds) = 0.532 

Total DRAM available = 16384.000 MB.
DRAM currently available =  145.141 MB.
Maximum ngspice program size =   15.344 MB.
Current ngspice program size =   15.344 MB.

