
Note: No compatibility mode selected!


Circuit: GF180MCU library cell nand2_4 A1_to_ZN__A2=1

Doing analysis at TEMP = 54.778254 and TNOM = 27.000000

Using SPARSE 1.3 as Direct Linear Solver

Initial Transient Solution
--------------------------

Node                                   Voltage
----                                   -------
vdd                                    1.63861
a1                                           0
a2                                     1.63861
xu1.net_0_0                        1.45905e-10
zn                                     1.63861
xu1.net_0_1                        1.45932e-10
xu1.net_0_2                        1.45905e-10
xu1.net_0_3                        1.45932e-10
vfix_a2#branch                               0
vin#branch                                   0
vdd#branch                        -6.65282e-12

 Reference value :  5.18994e-08
 Reference value :  1.02384e-07
 Reference value :  1.50686e-07
 Reference value :  2.00434e-07
 Reference value :  2.52509e-07
 Reference value :  3.03271e-07
No. of Data Rows : 68030

  Measurements for Transient Analysis

tphl                =  2.56914e-09 targ=  2.91551e-08 trig=  2.65859e-08
tplh                =  3.59500e-09 targ=  1.05353e-07 trig=  1.01758e-07
i_vdd_avg           =  -9.37348e-07 from=  1.00000e-08 to=  3.30001e-07
power_avg_uw        =  1.53595e+00


Total analysis time (seconds) = 1.98653

Total elapsed time (seconds) = 2.039 

Total DRAM available = 16384.000 MB.
DRAM currently available =  113.250 MB.
Maximum ngspice program size =   13.719 MB.
Current ngspice program size =   13.719 MB.

