
Note: No compatibility mode selected!


Circuit: GF180MCU library cell mux2_1 I0_to_Z__I1=0,S=0

Doing analysis at TEMP = 75.442500 and TNOM = 27.000000

Using SPARSE 1.3 as Direct Linear Solver

Initial Transient Solution
--------------------------

Node                                   Voltage
----                                   -------
vdd                                    1.79417
i0                                           0
i1                                           0
s                                            0
xu1.int04                              1.79417
z                                  1.07197e-08
xu1.net_1                             0.051021
xu1.net_3                               1.3626
xu1.sel1_n                             1.79417
xu1.net_0                              1.79417
xu1.net_2                              1.79417
vfix_s#branch                                0
vfix_i1#branch                               0
vin#branch                                   0
vdd#branch                        -1.26278e-10

 Reference value :  4.74802e-08
 Reference value :  1.08068e-07
 Reference value :  1.64823e-07
 Reference value :  2.17710e-07
 Reference value :  2.72938e-07
 Reference value :  3.34198e-07
No. of Data Rows : 68034

  Measurements for Transient Analysis

tplh                =  4.42695e-09 targ=  3.02508e-08 trig=  2.58238e-08
tphl                =  3.19487e-09 targ=  1.02666e-07 trig=  9.94715e-08
i_vdd_avg           =  -1.99314e-06 from=  1.00000e-08 to=  3.30003e-07
power_avg_uw        =  3.57604e+00


Total analysis time (seconds) = 1.84706

Total elapsed time (seconds) = 1.919 

Total DRAM available = 16384.000 MB.
DRAM currently available =   85.844 MB.
Maximum ngspice program size =   16.719 MB.
Current ngspice program size =   16.719 MB.

