
Note: No compatibility mode selected!


Circuit: GF180MCU library cell oai21_4 A1_to_ZN__A2=0,B=1

Doing analysis at TEMP = 107.280760 and TNOM = 27.000000

Using SPARSE 1.3 as Direct Linear Solver

Initial Transient Solution
--------------------------

Node                                   Voltage
----                                   -------
vdd                                    1.94145
a1                                           0
a2                                           0
b                                      1.94145
zn                                     1.94145
xu1.net_0                          9.54029e-08
xu1.net_1_0                            1.94145
xu1.net_1_1                            1.94145
xu1.net_1_2                            1.94145
xu1.net_1_3                            1.94145
vfix_b#branch                                0
vfix_a2#branch                               0
vin#branch                                   0
vdd#branch                        -7.54415e-11

 Reference value :  2.88725e-08
 Reference value :  6.14802e-08
 Reference value :  9.22202e-08
 Reference value :  1.24308e-07
 Reference value :  1.55888e-07
 Reference value :  1.86048e-07
 Reference value :  2.18645e-07
 Reference value :  2.47280e-07
 Reference value :  2.77608e-07
 Reference value :  3.06278e-07
 Reference value :  3.37613e-07
No. of Data Rows : 68034

  Measurements for Transient Analysis

tphl                =  -9.35336e-11 targ=  2.95628e-08 trig=  2.96563e-08
tplh                =  1.89161e-09 targ=  1.12861e-07 trig=  1.10969e-07
i_vdd_avg           =  -3.76163e-07 from=  1.00000e-08 to=  3.30003e-07
power_avg_uw        =  7.30302e-01


Total analysis time (seconds) = 3.49989

Total elapsed time (seconds) = 3.566 

Total DRAM available = 16384.000 MB.
DRAM currently available =  134.344 MB.
Maximum ngspice program size =   14.484 MB.
Current ngspice program size =   14.109 MB.

