
Note: No compatibility mode selected!


Circuit: GF180MCU library cell nand3_4 A1_to_ZN__A2=1,A3=1

Doing analysis at TEMP = -29.289656 and TNOM = 27.000000

Using SPARSE 1.3 as Direct Linear Solver

Initial Transient Solution
--------------------------

Node                                   Voltage
----                                   -------
vdd                                    1.85697
a1                                           0
a2                                     1.85697
a3                                     1.85697
xu1.net_1_3                        1.75795e-14
xu1.net_0                          3.51783e-14
xu1.net_1_2                        1.75664e-14
xu1.net_1_1                        1.75795e-14
xu1.net_1_0                        1.75586e-14
xu1.net_0_0                        3.51171e-14
zn                                     1.85697
vfix_a3#branch                               0
vfix_a2#branch                               0
vin#branch                                   0
vdd#branch                        -7.46788e-12

 Reference value :  2.67101e-08
 Reference value :  5.70201e-08
 Reference value :  8.67651e-08
 Reference value :  1.17548e-07
 Reference value :  1.49168e-07
 Reference value :  1.79613e-07
 Reference value :  2.09945e-07
 Reference value :  2.38230e-07
 Reference value :  2.67473e-07
 Reference value :  2.96603e-07
 Reference value :  3.26883e-07
No. of Data Rows : 68034

  Measurements for Transient Analysis

tphl                =  1.92340e-09 targ=  2.65597e-08 trig=  2.46363e-08
tplh                =  2.41743e-09 targ=  9.83264e-08 trig=  9.59089e-08
i_vdd_avg           =  -1.52474e-06 from=  1.00000e-08 to=  3.30003e-07
power_avg_uw        =  2.83139e+00


Total analysis time (seconds) = 3.79472

Total elapsed time (seconds) = 3.862 

Total DRAM available = 16384.000 MB.
DRAM currently available =   92.500 MB.
Maximum ngspice program size =   18.578 MB.
Current ngspice program size =   18.578 MB.

