
Note: No compatibility mode selected!


Circuit: GF180MCU library cell nand3_1 A1_to_ZN__A2=1,A3=1

Doing analysis at TEMP = 60.448701 and TNOM = 27.000000

Using SPARSE 1.3 as Direct Linear Solver

Initial Transient Solution
--------------------------

Node                                   Voltage
----                                   -------
vdd                                    1.72517
a1                                           0
a2                                     1.72517
a3                                     1.72517
xu1.net_1                          4.75565e-08
xu1.net_0                           9.5113e-08
zn                                     1.72517
vfix_a3#branch                               0
vfix_a2#branch                               0
vin#branch                                   0
vdd#branch                        -1.14449e-11

 Reference value :  8.25582e-08
 Reference value :  1.90293e-07
 Reference value :  2.89964e-07
No. of Data Rows : 68032

  Measurements for Transient Analysis

tphl                =  4.40669e-09 targ=  3.20795e-08 trig=  2.76728e-08
tplh                =  5.39622e-09 targ=  1.10415e-07 trig=  1.05018e-07
i_vdd_avg           =  -1.25992e-06 from=  1.00000e-08 to=  3.30004e-07
power_avg_uw        =  2.17357e+00


Total analysis time (seconds) = 1.02296

Total elapsed time (seconds) = 1.090 

Total DRAM available = 16384.000 MB.
DRAM currently available =   98.812 MB.
Maximum ngspice program size =   16.688 MB.
Current ngspice program size =   16.688 MB.

