
Note: No compatibility mode selected!


Circuit: GF180MCU library cell mux2_1 I0_to_Z__I1=0,S=0

Doing analysis at TEMP = 120.552420 and TNOM = 27.000000

Using SPARSE 1.3 as Direct Linear Solver

Initial Transient Solution
--------------------------

Node                                   Voltage
----                                   -------
vdd                                    1.95769
i0                                           0
i1                                           0
s                                            0
xu1.int04                              1.95769
z                                  1.58199e-08
xu1.net_1                            0.0522439
xu1.net_3                              1.47548
xu1.sel1_n                             1.95769
xu1.net_0                              1.95769
xu1.net_2                              1.95769
vfix_s#branch                                0
vfix_i1#branch                               0
vin#branch                                   0
vdd#branch                        -1.04072e-10

 Reference value :  5.46785e-08
 Reference value :  1.19409e-07
 Reference value :  1.74224e-07
 Reference value :  2.29313e-07
 Reference value :  2.87464e-07
 Reference value :  3.38259e-07
No. of Data Rows : 68032

  Measurements for Transient Analysis

tplh                =  1.10813e-09 targ=  2.59661e-08 trig=  2.48580e-08
tphl                =  1.51617e-09 targ=  9.80902e-08 trig=  9.65740e-08
i_vdd_avg           =  -2.57503e-07 from=  1.00000e-08 to=  3.30004e-07
power_avg_uw        =  5.04111e-01


Total analysis time (seconds) = 1.89537

Total elapsed time (seconds) = 1.957 

Total DRAM available = 16384.000 MB.
DRAM currently available =   78.562 MB.
Maximum ngspice program size =   13.938 MB.
Current ngspice program size =   13.938 MB.

