
Note: No compatibility mode selected!


Circuit: GF180MCU library cell nor2_1 A1_to_ZN__A2=0

Doing analysis at TEMP = 7.612975 and TNOM = 27.000000

Using SPARSE 1.3 as Direct Linear Solver

Initial Transient Solution
--------------------------

Node                                   Voltage
----                                   -------
vdd                                    1.96297
a1                                           0
a2                                           0
zn                                     1.96297
xu1.net_0                              1.96297
vfix_a2#branch                               0
vin#branch                                   0
vdd#branch                        -3.96343e-12

 Reference value :  9.75036e-08
 Reference value :  2.55694e-07
No. of Data Rows : 68032

  Measurements for Transient Analysis

tphl                =  5.26558e-09 targ=  3.33461e-08 trig=  2.80805e-08
tplh                =  1.32406e-08 targ=  1.19482e-07 trig=  1.06242e-07
i_vdd_avg           =  -2.47263e-06 from=  1.00000e-08 to=  3.30005e-07
power_avg_uw        =  4.85371e+00


Total analysis time (seconds) = 0.737347

Total elapsed time (seconds) = 0.809 

Total DRAM available = 16384.000 MB.
DRAM currently available =  131.391 MB.
Maximum ngspice program size =   16.500 MB.
Current ngspice program size =   16.500 MB.

