
Note: No compatibility mode selected!


Circuit: GF180MCU library cell aoi21_1 A1_to_ZN__A2=1,B=0

Doing analysis at TEMP = -11.880630 and TNOM = 27.000000

Using SPARSE 1.3 as Direct Linear Solver

Initial Transient Solution
--------------------------

Node                                   Voltage
----                                   -------
vdd                                    1.74851
a1                                           0
a2                                     1.74851
b                                            0
xu1.net_0                          5.10498e-12
zn                                     1.74851
xu1.net_1                              1.74851
vfix_b#branch                                0
vfix_a2#branch                               0
vin#branch                                   0
vdd#branch                         -3.5194e-12

 Reference value :  7.50753e-08
 Reference value :  1.84618e-07
 Reference value :  2.92168e-07
No. of Data Rows : 68034

  Measurements for Transient Analysis

tphl                =  4.22152e-10 targ=  2.94461e-08 trig=  2.90239e-08
tplh                =  1.98341e-09 targ=  1.11055e-07 trig=  1.09072e-07
i_vdd_avg           =  -3.65306e-08 from=  1.00000e-08 to=  3.30003e-07
power_avg_uw        =  6.38742e-02


Total analysis time (seconds) = 1.04092

Total elapsed time (seconds) = 1.117 

Total DRAM available = 16384.000 MB.
DRAM currently available =  104.172 MB.
Maximum ngspice program size =   16.094 MB.
Current ngspice program size =   16.094 MB.

