
Note: No compatibility mode selected!


Circuit: GF180MCU library cell inv_1 I_to_ZN

Doing analysis at TEMP = -26.310342 and TNOM = 27.000000

Using SPARSE 1.3 as Direct Linear Solver

Initial Transient Solution
--------------------------

Node                                   Voltage
----                                   -------
vdd                                    1.97923
i                                            0
zn                                     1.97923
vin#branch                                   0
vdd#branch                        -2.00102e-12

 Reference value :  2.13216e-07
No. of Data Rows : 68034

  Measurements for Transient Analysis

tphl                =  1.63980e-09 targ=  2.91565e-08 trig=  2.75167e-08
tplh                =  3.18459e-09 targ=  1.07735e-07 trig=  1.04550e-07
i_vdd_avg           =  -1.00889e-06 from=  1.00000e-08 to=  3.30004e-07
power_avg_uw        =  1.99683e+00


Total analysis time (seconds) = 0.400632

Total elapsed time (seconds) = 0.456 

Total DRAM available = 16384.000 MB.
DRAM currently available =  109.594 MB.
Maximum ngspice program size =   17.500 MB.
Current ngspice program size =   17.500 MB.

