
Note: No compatibility mode selected!


Circuit: GF180MCU library cell mux2_4 I0_to_Z__I1=0,S=0

Doing analysis at TEMP = 60.983665 and TNOM = 27.000000

Using SPARSE 1.3 as Direct Linear Solver

Initial Transient Solution
--------------------------

Node                                   Voltage
----                                   -------
vdd                                    1.82987
i0                                           0
i1                                           0
s                                            0
xu1.int04                              1.82987
z                                  1.18142e-08
xu1.net_1                            0.0312831
xu1.net_3                              1.29018
xu1.sel1_n                             1.82987
xu1.net_0                              1.82987
xu1.net_2                              1.82987
vfix_s#branch                                0
vfix_i1#branch                               0
vin#branch                                   0
vdd#branch                        -1.68762e-11

 Reference value :  3.14980e-08
 Reference value :  6.69680e-08
 Reference value :  1.06549e-07
 Reference value :  1.44524e-07
 Reference value :  1.82639e-07
 Reference value :  2.17083e-07
 Reference value :  2.58493e-07
 Reference value :  2.96609e-07
 Reference value :  3.35454e-07
No. of Data Rows : 68032

  Measurements for Transient Analysis

tplh                =  2.55776e-09 targ=  2.86205e-08 trig=  2.60628e-08
tphl                =  3.04166e-09 targ=  1.03230e-07 trig=  1.00188e-07
i_vdd_avg           =  -1.89287e-06 from=  1.00000e-08 to=  3.30004e-07
power_avg_uw        =  3.46370e+00


Total analysis time (seconds) = 2.8558

Total elapsed time (seconds) = 2.925 

Total DRAM available = 16384.000 MB.
DRAM currently available =  108.516 MB.
Maximum ngspice program size =   15.953 MB.
Current ngspice program size =   15.953 MB.

