
Note: No compatibility mode selected!


Circuit: GF180MCU library cell oai21_1 A1_to_ZN__A2=0,B=1

Doing analysis at TEMP = 82.392295 and TNOM = 27.000000

Using SPARSE 1.3 as Direct Linear Solver

Initial Transient Solution
--------------------------

Node                                   Voltage
----                                   -------
vdd                                    1.81191
a1                                           0
a2                                           0
b                                      1.81191
zn                                     1.81191
xu1.net_0                          2.02344e-09
xu1.net_1                              1.81191
vfix_b#branch                                0
vfix_a2#branch                               0
vin#branch                                   0
vdd#branch                        -3.86443e-12

 Reference value :  6.54700e-08
 Reference value :  1.60162e-07
 Reference value :  2.57410e-07
No. of Data Rows : 68030

  Measurements for Transient Analysis

tphl                =  1.11147e-09 targ=  2.91127e-08 trig=  2.80012e-08
tplh                =  2.56073e-09 targ=  1.08564e-07 trig=  1.06004e-07
i_vdd_avg           =  -5.72570e-08 from=  1.00000e-08 to=  3.30002e-07
power_avg_uw        =  1.03745e-01


Total analysis time (seconds) = 1.17559

Total elapsed time (seconds) = 1.249 

Total DRAM available = 16384.000 MB.
DRAM currently available =  146.828 MB.
Maximum ngspice program size =   14.234 MB.
Current ngspice program size =   14.234 MB.

