
Note: No compatibility mode selected!


Circuit: GF180MCU library cell nand3_1 A1_to_ZN__A2=1,A3=1

Doing analysis at TEMP = 36.177714 and TNOM = 27.000000

Using SPARSE 1.3 as Direct Linear Solver

Initial Transient Solution
--------------------------

Node                                   Voltage
----                                   -------
vdd                                    1.84751
a1                                           0
a2                                     1.84751
a3                                     1.84751
xu1.net_1                          9.55277e-09
xu1.net_0                          1.91055e-08
zn                                     1.84751
vfix_a3#branch                               0
vfix_a2#branch                               0
vin#branch                                   0
vdd#branch                        -4.10132e-12

 Reference value :  1.02619e-07
 Reference value :  1.94546e-07
 Reference value :  3.04584e-07
No. of Data Rows : 68034

  Measurements for Transient Analysis

tphl                =  4.94038e-09 targ=  2.98619e-08 trig=  2.49215e-08
tplh                =  5.54735e-09 targ=  1.02312e-07 trig=  9.67646e-08
i_vdd_avg           =  -2.25158e-06 from=  1.00000e-08 to=  3.30004e-07
power_avg_uw        =  4.15981e+00


Total analysis time (seconds) = 1.02501

Total elapsed time (seconds) = 1.082 

Total DRAM available = 16384.000 MB.
DRAM currently available =  147.000 MB.
Maximum ngspice program size =   13.734 MB.
Current ngspice program size =   13.734 MB.

