
Note: No compatibility mode selected!


Circuit: GF180MCU library cell nand3_1 A1_to_ZN__A2=1,A3=1

Doing analysis at TEMP = 118.009940 and TNOM = 27.000000

Using SPARSE 1.3 as Direct Linear Solver

Initial Transient Solution
--------------------------

Node                                   Voltage
----                                   -------
vdd                                    1.95243
a1                                           0
a2                                     1.95243
a3                                     1.95243
xu1.net_1                          8.31205e-08
xu1.net_0                          1.66241e-07
zn                                     1.95243
vfix_a3#branch                               0
vfix_a2#branch                               0
vin#branch                                   0
vdd#branch                        -1.47504e-11

 Reference value :  8.73750e-08
 Reference value :  1.98220e-07
 Reference value :  2.94268e-07
No. of Data Rows : 68034

  Measurements for Transient Analysis

tphl                =  1.65560e-09 targ=  3.13769e-08 trig=  2.97213e-08
tplh                =  3.07029e-09 targ=  1.14234e-07 trig=  1.11164e-07
i_vdd_avg           =  -2.67136e-07 from=  1.00000e-08 to=  3.30003e-07
power_avg_uw        =  5.21565e-01


Total analysis time (seconds) = 1.01785

Total elapsed time (seconds) = 1.089 

Total DRAM available = 16384.000 MB.
DRAM currently available =  114.172 MB.
Maximum ngspice program size =   15.859 MB.
Current ngspice program size =   15.859 MB.

