
Note: No compatibility mode selected!


Circuit: GF180MCU library cell mux2_1 I0_to_Z__I1=0,S=0

Doing analysis at TEMP = 112.698910 and TNOM = 27.000000

Using SPARSE 1.3 as Direct Linear Solver

Initial Transient Solution
--------------------------

Node                                   Voltage
----                                   -------
vdd                                    1.75336
i0                                           0
i1                                           0
s                                            0
xu1.int04                              1.75335
z                                  1.91221e-08
xu1.net_1                            0.0402492
xu1.net_3                              1.27631
xu1.sel1_n                             1.75336
xu1.net_0                              1.75336
xu1.net_2                              1.75336
vfix_s#branch                                0
vfix_i1#branch                               0
vin#branch                                   0
vdd#branch                        -1.66614e-11

 Reference value :  3.95917e-08
 Reference value :  1.01207e-07
 Reference value :  1.58411e-07
 Reference value :  2.09727e-07
 Reference value :  2.68597e-07
 Reference value :  3.29461e-07
No. of Data Rows : 68032

  Measurements for Transient Analysis

tplh                =  9.33732e-09 targ=  3.88169e-08 trig=  2.94796e-08
tphl                =  7.65560e-09 targ=  1.18094e-07 trig=  1.10439e-07
i_vdd_avg           =  -1.38596e-06 from=  1.00000e-08 to=  3.30001e-07
power_avg_uw        =  2.43009e+00


Total analysis time (seconds) = 1.89944

Total elapsed time (seconds) = 1.966 

Total DRAM available = 16384.000 MB.
DRAM currently available =   95.297 MB.
Maximum ngspice program size =   15.859 MB.
Current ngspice program size =   15.859 MB.

