
Note: No compatibility mode selected!


Circuit: GF180MCU library cell nand3_1 A1_to_ZN__A2=1,A3=1

Doing analysis at TEMP = 63.646421 and TNOM = 27.000000

Using SPARSE 1.3 as Direct Linear Solver

Initial Transient Solution
--------------------------

Node                                   Voltage
----                                   -------
vdd                                    1.86628
a1                                           0
a2                                     1.86628
a3                                     1.86628
xu1.net_1                          5.65639e-08
xu1.net_0                          1.13128e-07
zn                                     1.86628
vfix_a3#branch                               0
vfix_a2#branch                               0
vin#branch                                   0
vdd#branch                         -1.4372e-11

 Reference value :  7.65422e-08
 Reference value :  1.71787e-07
 Reference value :  2.68632e-07
No. of Data Rows : 68032

  Measurements for Transient Analysis

tphl                =  3.12406e-09 targ=  3.05539e-08 trig=  2.74298e-08
tplh                =  3.93520e-09 targ=  1.08225e-07 trig=  1.04290e-07
i_vdd_avg           =  -9.88500e-07 from=  1.00000e-08 to=  3.30002e-07
power_avg_uw        =  1.84482e+00


Total analysis time (seconds) = 1.12052

Total elapsed time (seconds) = 1.191 

Total DRAM available = 16384.000 MB.
DRAM currently available =   98.000 MB.
Maximum ngspice program size =   16.828 MB.
Current ngspice program size =   16.828 MB.

