
Note: No compatibility mode selected!


Circuit: GF180MCU library cell nand3_1 A1_to_ZN__A2=1,A3=1

Doing analysis at TEMP = 95.888201 and TNOM = 27.000000

Using SPARSE 1.3 as Direct Linear Solver

Initial Transient Solution
--------------------------

Node                                   Voltage
----                                   -------
vdd                                    1.68541
a1                                           0
a2                                     1.68541
a3                                     1.68541
xu1.net_1                          2.71333e-08
xu1.net_0                          5.42667e-08
zn                                     1.68541
vfix_a3#branch                               0
vfix_a2#branch                               0
vin#branch                                   0
vdd#branch                         -5.3681e-12

 Reference value :  7.11664e-08
 Reference value :  1.76075e-07
 Reference value :  2.70461e-07
No. of Data Rows : 68032

  Measurements for Transient Analysis

tphl                =  3.94901e-09 targ=  3.26260e-08 trig=  2.86770e-08
tplh                =  5.06255e-09 targ=  1.13093e-07 trig=  1.08031e-07
i_vdd_avg           =  -4.98253e-07 from=  1.00000e-08 to=  3.30000e-07
power_avg_uw        =  8.39762e-01


Total analysis time (seconds) = 1.10525

Total elapsed time (seconds) = 1.177 

Total DRAM available = 16384.000 MB.
DRAM currently available =   98.000 MB.
Maximum ngspice program size =   16.469 MB.
Current ngspice program size =   16.469 MB.

