
Note: No compatibility mode selected!


Circuit: GF180MCU library cell nand2_4 A1_to_ZN__A2=1

Doing analysis at TEMP = 101.196000 and TNOM = 27.000000

Using SPARSE 1.3 as Direct Linear Solver

Initial Transient Solution
--------------------------

Node                                   Voltage
----                                   -------
vdd                                    1.77701
a1                                           0
a2                                     1.77701
xu1.net_0_0                        3.44163e-09
zn                                     1.77701
xu1.net_0_1                        3.44163e-09
xu1.net_0_2                        3.44163e-09
xu1.net_0_3                        3.44163e-09
vfix_a2#branch                               0
vin#branch                                   0
vdd#branch                        -8.54269e-12

 Reference value :  2.90518e-08
 Reference value :  7.66518e-08
 Reference value :  1.26576e-07
 Reference value :  1.78651e-07
 Reference value :  2.26447e-07
 Reference value :  2.74331e-07
 Reference value :  3.24251e-07
No. of Data Rows : 68032

  Measurements for Transient Analysis

tphl                =  1.86536e-09 targ=  2.73975e-08 trig=  2.55321e-08
tplh                =  2.56528e-09 targ=  1.01162e-07 trig=  9.85964e-08
i_vdd_avg           =  -1.09217e-06 from=  1.00000e-08 to=  3.30001e-07
power_avg_uw        =  1.94080e+00


Total analysis time (seconds) = 2.26567

Total elapsed time (seconds) = 2.347 

Total DRAM available = 16384.000 MB.
DRAM currently available =   97.922 MB.
Maximum ngspice program size =   15.984 MB.
Current ngspice program size =   15.984 MB.

