
Note: No compatibility mode selected!


Circuit: GF180MCU library cell inv_1 I_to_ZN

Doing analysis at TEMP = -4.566161 and TNOM = 27.000000

Using SPARSE 1.3 as Direct Linear Solver

Initial Transient Solution
--------------------------

Node                                   Voltage
----                                   -------
vdd                                    1.96727
i                                            0
zn                                     1.96727
vin#branch                                   0
vdd#branch                        -1.97959e-12

 Reference value :  2.06759e-07
No. of Data Rows : 68030

  Measurements for Transient Analysis

tphl                =  2.88338e-09 targ=  3.10243e-08 trig=  2.81409e-08
tplh                =  4.90216e-09 targ=  1.11325e-07 trig=  1.06423e-07
i_vdd_avg           =  -1.16722e-06 from=  1.00000e-08 to=  3.30001e-07
power_avg_uw        =  2.29624e+00


Total analysis time (seconds) = 0.429859

Total elapsed time (seconds) = 0.497 

Total DRAM available = 16384.000 MB.
DRAM currently available =  145.141 MB.
Maximum ngspice program size =   17.344 MB.
Current ngspice program size =   17.344 MB.

