
Note: No compatibility mode selected!


Circuit: GF180MCU library cell aoi21_4 A1_to_ZN__A2=1,B=0

Doing analysis at TEMP = 4.116931 and TNOM = 27.000000

Using SPARSE 1.3 as Direct Linear Solver

Initial Transient Solution
--------------------------

Node                                   Voltage
----                                   -------
vdd                                    1.84842
a1                                           0
a2                                     1.84842
b                                            0
xu1.net_0_0                        7.71786e-10
zn                                     1.84842
xu1.net_0_1                        7.71786e-10
xu1.net_0_2                        7.71786e-10
xu1.net_0_3                        7.71786e-10
xu1.net_1                              1.84842
vfix_b#branch                                0
vfix_a2#branch                               0
vin#branch                                   0
vdd#branch                        -1.66335e-11

 Reference value :  1.79114e-08
 Reference value :  4.82412e-08
 Reference value :  7.95012e-08
 Reference value :  1.09006e-07
 Reference value :  1.40455e-07
 Reference value :  1.69155e-07
 Reference value :  1.99956e-07
 Reference value :  2.31161e-07
 Reference value :  2.60756e-07
 Reference value :  2.91380e-07
 Reference value :  3.23280e-07
No. of Data Rows : 68034

  Measurements for Transient Analysis

tphl                =  1.83743e-09 targ=  2.99993e-08 trig=  2.81618e-08
tplh                =  4.06957e-09 targ=  1.10555e-07 trig=  1.06486e-07
i_vdd_avg           =  -2.41648e-06 from=  1.00000e-08 to=  3.30005e-07
power_avg_uw        =  4.46667e+00


Total analysis time (seconds) = 3.62748

Total elapsed time (seconds) = 3.693 

Total DRAM available = 16384.000 MB.
DRAM currently available =  117.125 MB.
Maximum ngspice program size =   16.562 MB.
Current ngspice program size =   16.562 MB.

