
Note: No compatibility mode selected!


Circuit: GF180MCU library cell aoi21_1 A1_to_ZN__A2=1,B=0

Doing analysis at TEMP = 48.034467 and TNOM = 27.000000

Using SPARSE 1.3 as Direct Linear Solver

Initial Transient Solution
--------------------------

Node                                   Voltage
----                                   -------
vdd                                    1.75965
a1                                           0
a2                                     1.75965
b                                            0
xu1.net_0                          1.19125e-09
zn                                     1.75965
xu1.net_1                              1.75965
vfix_b#branch                                0
vfix_a2#branch                               0
vin#branch                                   0
vdd#branch                        -3.97013e-12

 Reference value :  7.10805e-08
 Reference value :  1.82339e-07
 Reference value :  2.87939e-07
No. of Data Rows : 68034

  Measurements for Transient Analysis

tphl                =  4.13484e-09 targ=  2.82939e-08 trig=  2.41590e-08
tplh                =  1.14139e-08 targ=  1.05891e-07 trig=  9.44770e-08
i_vdd_avg           =  -1.65553e-06 from=  1.00000e-08 to=  3.30004e-07
power_avg_uw        =  2.91317e+00


Total analysis time (seconds) = 1.05189

Total elapsed time (seconds) = 1.138 

Total DRAM available = 16384.000 MB.
DRAM currently available =   84.031 MB.
Maximum ngspice program size =   17.719 MB.
Current ngspice program size =   17.719 MB.

