
Note: No compatibility mode selected!


Circuit: GF180MCU library cell xor2_4 A1_to_Z__A2=0

Doing analysis at TEMP = 120.698060 and TNOM = 27.000000

Using SPARSE 1.3 as Direct Linear Solver

Initial Transient Solution
--------------------------

Node                                   Voltage
----                                   -------
vdd                                    1.92302
a1                                           0
a2                                           0
xu1.net_2                            0.0565622
xu1.i                                  1.92302
xu1.net_0                          2.07687e-06
xu1.z_neg                                1.923
z                                  3.61094e-08
xu1.net_1                              1.92301
vfix_a2#branch                               0
vin#branch                                   0
vdd#branch                        -5.33719e-10

 Reference value :  2.40005e-08
 Reference value :  6.55513e-08
 Reference value :  1.06371e-07
 Reference value :  1.47585e-07
 Reference value :  1.89968e-07
 Reference value :  2.36811e-07
 Reference value :  2.77515e-07
 Reference value :  3.23150e-07
No. of Data Rows : 68032

  Measurements for Transient Analysis

tplh                =  1.16381e-09 targ=  2.87232e-08 trig=  2.75594e-08
tphl                =  2.56491e-09 targ=  1.07243e-07 trig=  1.04678e-07
i_vdd_avg           =  -1.17942e-06 from=  1.00000e-08 to=  3.30000e-07
power_avg_uw        =  2.26805e+00


Total analysis time (seconds) = 2.57682

Total elapsed time (seconds) = 2.655 

Total DRAM available = 16384.000 MB.
DRAM currently available =   93.766 MB.
Maximum ngspice program size =   19.281 MB.
Current ngspice program size =   19.281 MB.

