
Note: No compatibility mode selected!


Circuit: GF180MCU library cell aoi21_1 A1_to_ZN__A2=1,B=0

Doing analysis at TEMP = 101.387550 and TNOM = 27.000000

Using SPARSE 1.3 as Direct Linear Solver

Initial Transient Solution
--------------------------

Node                                   Voltage
----                                   -------
vdd                                     1.6633
a1                                           0
a2                                      1.6633
b                                            0
xu1.net_0                          3.71289e-08
zn                                      1.6633
xu1.net_1                               1.6633
vfix_b#branch                                0
vfix_a2#branch                               0
vin#branch                                   0
vdd#branch                        -1.37542e-11

 Reference value :  7.87381e-08
 Reference value :  1.85938e-07
 Reference value :  2.93744e-07
No. of Data Rows : 68032

  Measurements for Transient Analysis

tphl                =  3.18745e-09 targ=  2.77927e-08 trig=  2.46053e-08
tplh                =  8.39984e-09 targ=  1.04216e-07 trig=  9.58159e-08
i_vdd_avg           =  -9.47500e-07 from=  1.00000e-08 to=  3.30004e-07
power_avg_uw        =  1.57598e+00


Total analysis time (seconds) = 1.02543

Total elapsed time (seconds) = 1.110 

Total DRAM available = 16384.000 MB.
DRAM currently available =   98.141 MB.
Maximum ngspice program size =   18.375 MB.
Current ngspice program size =   18.375 MB.

