
Note: No compatibility mode selected!


Circuit: GF180MCU library cell xor2_1 A1_to_Z__A2=0

Doing analysis at TEMP = 58.802756 and TNOM = 27.000000

Using SPARSE 1.3 as Direct Linear Solver

Initial Transient Solution
--------------------------

Node                                   Voltage
----                                   -------
vdd                                    1.88283
a1                                           0
a2                                           0
xu1.i                                  1.88283
z                                  5.71923e-08
xu1.net_0                           4.6853e-09
xu1.net_2                              1.88283
xu1.net_1                             0.815582
vfix_a2#branch                               0
vin#branch                                   0
vdd#branch                        -1.11051e-11

 Reference value :  4.44389e-08
 Reference value :  1.10255e-07
 Reference value :  1.84278e-07
 Reference value :  2.49029e-07
 Reference value :  3.19475e-07
No. of Data Rows : 68030

  Measurements for Transient Analysis

tplh                =  8.02131e-09 targ=  3.54095e-08 trig=  2.73882e-08
tphl                =  4.47753e-09 targ=  1.08642e-07 trig=  1.04165e-07
i_vdd_avg           =  -8.19020e-07 from=  1.00000e-08 to=  3.30000e-07
power_avg_uw        =  1.54207e+00


Total analysis time (seconds) = 1.71619

Total elapsed time (seconds) = 1.814 

Total DRAM available = 16384.000 MB.
DRAM currently available =  108.391 MB.
Maximum ngspice program size =   18.750 MB.
Current ngspice program size =   18.750 MB.

