
Note: No compatibility mode selected!


Circuit: GF180MCU library cell mux2_4 I0_to_Z__I1=0,S=0

Doing analysis at TEMP = -30.773285 and TNOM = 27.000000

Using SPARSE 1.3 as Direct Linear Solver

Initial Transient Solution
--------------------------

Node                                   Voltage
----                                   -------
vdd                                    1.85549
i0                                           0
i1                                           0
s                                            0
xu1.int04                              1.85549
z                                  6.86203e-09
xu1.net_1                           0.00211852
xu1.net_3                              1.27015
xu1.sel1_n                             1.85549
xu1.net_0                              1.85549
xu1.net_2                              1.85549
vfix_s#branch                                0
vfix_i1#branch                               0
vin#branch                                   0
vdd#branch                         -1.6072e-11

 Reference value :  2.84975e-08
 Reference value :  7.22816e-08
 Reference value :  1.11456e-07
 Reference value :  1.53406e-07
 Reference value :  1.94137e-07
 Reference value :  2.30052e-07
 Reference value :  2.68046e-07
 Reference value :  3.10541e-07
No. of Data Rows : 68032

  Measurements for Transient Analysis

tplh                =  8.95848e-10 targ=  2.80579e-08 trig=  2.71620e-08
tphl                =  1.88821e-09 targ=  1.05374e-07 trig=  1.03486e-07
i_vdd_avg           =  -4.84644e-07 from=  1.00000e-08 to=  3.30001e-07
power_avg_uw        =  8.99252e-01


Total analysis time (seconds) = 2.84429

Total elapsed time (seconds) = 2.908 

Total DRAM available = 16384.000 MB.
DRAM currently available =  157.578 MB.
Maximum ngspice program size =   16.109 MB.
Current ngspice program size =   16.109 MB.

