
Note: No compatibility mode selected!


Circuit: GF180MCU library cell xor2_1 A1_to_Z__A2=0

Doing analysis at TEMP = 55.575387 and TNOM = 27.000000

Using SPARSE 1.3 as Direct Linear Solver

Initial Transient Solution
--------------------------

Node                                   Voltage
----                                   -------
vdd                                    1.67849
a1                                           0
a2                                           0
xu1.i                                  1.67849
z                                  5.89786e-08
xu1.net_0                          3.91861e-09
xu1.net_2                              1.67849
xu1.net_1                             0.766008
vfix_a2#branch                               0
vin#branch                                   0
vdd#branch                        -9.73197e-12

 Reference value :  5.63141e-08
 Reference value :  1.29301e-07
 Reference value :  2.03644e-07
 Reference value :  2.74911e-07
No. of Data Rows : 68030

  Measurements for Transient Analysis

tplh                =  2.67639e-08 targ=  5.53498e-08 trig=  2.85858e-08
tphl                =  8.81305e-09 targ=  1.16571e-07 trig=  1.07757e-07
i_vdd_avg           =  -1.83085e-06 from=  1.00000e-08 to=  3.30001e-07
power_avg_uw        =  3.07307e+00


Total analysis time (seconds) = 1.43464

Total elapsed time (seconds) = 1.500 

Total DRAM available = 16384.000 MB.
DRAM currently available =  128.922 MB.
Maximum ngspice program size =   15.328 MB.
Current ngspice program size =   15.328 MB.

