
Note: No compatibility mode selected!


Circuit: GF180MCU library cell aoi21_4 A1_to_ZN__A2=1,B=0

Doing analysis at TEMP = -10.590046 and TNOM = 27.000000

Using SPARSE 1.3 as Direct Linear Solver

Initial Transient Solution
--------------------------

Node                                   Voltage
----                                   -------
vdd                                    1.76778
a1                                           0
a2                                     1.76778
b                                            0
xu1.net_0_0                        2.01169e-10
zn                                     1.76778
xu1.net_0_1                        2.01168e-10
xu1.net_0_2                        2.01169e-10
xu1.net_0_3                        2.01168e-10
xu1.net_1                              1.76778
vfix_b#branch                                0
vfix_a2#branch                               0
vin#branch                                   0
vdd#branch                        -1.46879e-11

 Reference value :  2.30964e-08
 Reference value :  5.41810e-08
 Reference value :  8.59710e-08
 Reference value :  1.17810e-07
 Reference value :  1.50560e-07
 Reference value :  1.82135e-07
 Reference value :  2.12961e-07
 Reference value :  2.41911e-07
 Reference value :  2.70710e-07
 Reference value :  3.01940e-07
 Reference value :  3.29485e-07
No. of Data Rows : 68034

  Measurements for Transient Analysis

tphl                =  5.22425e-10 targ=  2.74842e-08 trig=  2.69618e-08
tplh                =  1.73081e-09 targ=  1.04616e-07 trig=  1.02885e-07
i_vdd_avg           =  -5.52235e-07 from=  1.00000e-08 to=  3.30005e-07
power_avg_uw        =  9.76230e-01


Total analysis time (seconds) = 3.60336

Total elapsed time (seconds) = 3.681 

Total DRAM available = 16384.000 MB.
DRAM currently available =  117.125 MB.
Maximum ngspice program size =   15.578 MB.
Current ngspice program size =   15.578 MB.

