
Note: No compatibility mode selected!


Circuit: GF180MCU library cell nand3_1 A1_to_ZN__A2=1,A3=1

Doing analysis at TEMP = 52.965053 and TNOM = 27.000000

Using SPARSE 1.3 as Direct Linear Solver

Initial Transient Solution
--------------------------

Node                                   Voltage
----                                   -------
vdd                                    1.85492
a1                                           0
a2                                     1.85492
a3                                     1.85492
xu1.net_1                          1.13792e-10
xu1.net_0                          2.27585e-10
zn                                     1.85492
vfix_a3#branch                               0
vfix_a2#branch                               0
vin#branch                                   0
vdd#branch                        -1.87878e-12

 Reference value :  8.93024e-08
 Reference value :  1.95332e-07
 Reference value :  2.96037e-07
No. of Data Rows : 68032

  Measurements for Transient Analysis

tphl                =  1.87558e-09 targ=  2.64255e-08 trig=  2.45500e-08
tplh                =  2.25689e-09 targ=  9.79068e-08 trig=  9.56499e-08
i_vdd_avg           =  -3.29373e-07 from=  1.00000e-08 to=  3.30002e-07
power_avg_uw        =  6.10961e-01


Total analysis time (seconds) = 1.02327

Total elapsed time (seconds) = 1.098 

Total DRAM available = 16384.000 MB.
DRAM currently available =  108.312 MB.
Maximum ngspice program size =   16.922 MB.
Current ngspice program size =   16.922 MB.

