
Note: No compatibility mode selected!


Circuit: GF180MCU library cell oai21_1 A1_to_ZN__A2=0,B=1

Doing analysis at TEMP = 110.048730 and TNOM = 27.000000

Using SPARSE 1.3 as Direct Linear Solver

Initial Transient Solution
--------------------------

Node                                   Voltage
----                                   -------
vdd                                     1.9105
a1                                           0
a2                                           0
b                                       1.9105
zn                                      1.9105
xu1.net_0                          1.11127e-07
xu1.net_1                               1.9105
vfix_b#branch                                0
vfix_a2#branch                               0
vin#branch                                   0
vdd#branch                        -2.08284e-11

 Reference value :  6.94043e-08
 Reference value :  1.83871e-07
 Reference value :  2.82991e-07
No. of Data Rows : 68030

  Measurements for Transient Analysis

tphl                =  3.62900e-09 targ=  3.08249e-08 trig=  2.71959e-08
tplh                =  7.67594e-09 targ=  1.11264e-07 trig=  1.03588e-07
i_vdd_avg           =  -1.10095e-06 from=  1.00000e-08 to=  3.30001e-07
power_avg_uw        =  2.10337e+00


Total analysis time (seconds) = 1.03523

Total elapsed time (seconds) = 1.105 

Total DRAM available = 16384.000 MB.
DRAM currently available =  123.047 MB.
Maximum ngspice program size =   16.906 MB.
Current ngspice program size =   16.906 MB.

