
Note: No compatibility mode selected!


Circuit: GF180MCU library cell nand2_4 A1_to_ZN__A2=1

Doing analysis at TEMP = 112.568480 and TNOM = 27.000000

Using SPARSE 1.3 as Direct Linear Solver

Initial Transient Solution
--------------------------

Node                                   Voltage
----                                   -------
vdd                                    1.91478
a1                                           0
a2                                     1.91478
xu1.net_0_0                        6.42037e-09
zn                                     1.91478
xu1.net_0_1                        6.42037e-09
xu1.net_0_2                        6.42037e-09
xu1.net_0_3                        6.42037e-09
vfix_a2#branch                               0
vin#branch                                   0
vdd#branch                        -1.05084e-11

 Reference value :  3.64975e-08
 Reference value :  8.31375e-08
 Reference value :  1.30587e-07
 Reference value :  1.81442e-07
 Reference value :  2.30712e-07
 Reference value :  2.81782e-07
 Reference value :  3.30862e-07
No. of Data Rows : 68032

  Measurements for Transient Analysis

tphl                =  2.69703e-09 targ=  2.96545e-08 trig=  2.69575e-08
tplh                =  3.64956e-09 targ=  1.06522e-07 trig=  1.02872e-07
i_vdd_avg           =  -1.64536e-06 from=  1.00000e-08 to=  3.30002e-07
power_avg_uw        =  3.15050e+00


Total analysis time (seconds) = 2.17213

Total elapsed time (seconds) = 2.236 

Total DRAM available = 16384.000 MB.
DRAM currently available =  167.062 MB.
Maximum ngspice program size =   15.062 MB.
Current ngspice program size =   15.062 MB.

