
Note: No compatibility mode selected!


Circuit: GF180MCU library cell aoi21_4 A1_to_ZN__A2=1,B=0

Doing analysis at TEMP = 117.706950 and TNOM = 27.000000

Using SPARSE 1.3 as Direct Linear Solver

Initial Transient Solution
--------------------------

Node                                   Voltage
----                                   -------
vdd                                    1.65794
a1                                           0
a2                                     1.65794
b                                            0
xu1.net_0_0                        8.78814e-08
zn                                     1.65794
xu1.net_0_1                        8.78814e-08
xu1.net_0_2                        8.78814e-08
xu1.net_0_3                        8.78814e-08
xu1.net_1                              1.65794
vfix_b#branch                                0
vfix_a2#branch                               0
vin#branch                                   0
vdd#branch                        -1.06852e-10

 Reference value :  1.96964e-08
 Reference value :  5.15064e-08
 Reference value :  8.14714e-08
 Reference value :  1.12220e-07
 Reference value :  1.45290e-07
 Reference value :  1.76245e-07
 Reference value :  2.06841e-07
 Reference value :  2.38836e-07
 Reference value :  2.66981e-07
 Reference value :  2.95675e-07
 Reference value :  3.28040e-07
No. of Data Rows : 68032

  Measurements for Transient Analysis

tphl                =  1.64112e-09 targ=  2.91755e-08 trig=  2.75344e-08
tplh                =  3.40150e-09 targ=  1.08005e-07 trig=  1.04603e-07
i_vdd_avg           =  -7.44064e-07 from=  1.00000e-08 to=  3.30000e-07
power_avg_uw        =  1.23361e+00


Total analysis time (seconds) = 3.65037

Total elapsed time (seconds) = 3.735 

Total DRAM available = 16384.000 MB.
DRAM currently available =  127.438 MB.
Maximum ngspice program size =   16.141 MB.
Current ngspice program size =   16.141 MB.

