
Note: No compatibility mode selected!


Circuit: GF180MCU library cell nor2_1 A1_to_ZN__A2=0

Doing analysis at TEMP = -30.676916 and TNOM = 27.000000

Using SPARSE 1.3 as Direct Linear Solver

Initial Transient Solution
--------------------------

Node                                   Voltage
----                                   -------
vdd                                    1.93363
a1                                           0
a2                                           0
zn                                     1.93363
xu1.net_0                              1.93363
vfix_a2#branch                               0
vin#branch                                   0
vdd#branch                        -3.88755e-12

 Reference value :  1.03135e-07
 Reference value :  2.71123e-07
No. of Data Rows : 68034

  Measurements for Transient Analysis

tphl                =  4.38294e-09 targ=  3.07594e-08 trig=  2.63765e-08
tplh                =  1.19348e-08 targ=  1.13064e-07 trig=  1.01129e-07
i_vdd_avg           =  -2.44506e-06 from=  1.00000e-08 to=  3.30003e-07
power_avg_uw        =  4.72783e+00


Total analysis time (seconds) = 0.693989

Total elapsed time (seconds) = 0.773 

Total DRAM available = 16384.000 MB.
DRAM currently available =  167.062 MB.
Maximum ngspice program size =   18.656 MB.
Current ngspice program size =   18.656 MB.

