
Note: No compatibility mode selected!


Circuit: GF180MCU library cell aoi21_1 A1_to_ZN__A2=1,B=0

Doing analysis at TEMP = -29.573480 and TNOM = 27.000000

Using SPARSE 1.3 as Direct Linear Solver

Initial Transient Solution
--------------------------

Node                                   Voltage
----                                   -------
vdd                                     1.8732
a1                                           0
a2                                      1.8732
b                                            0
xu1.net_0                          5.94925e-13
zn                                      1.8732
xu1.net_1                               1.8732
vfix_b#branch                                0
vfix_a2#branch                               0
vin#branch                                   0
vdd#branch                        -3.76673e-12

 Reference value :  7.61759e-08
 Reference value :  1.85608e-07
 Reference value :  2.95819e-07
No. of Data Rows : 68034

  Measurements for Transient Analysis

tphl                =  5.32478e-09 targ=  3.50490e-08 trig=  2.97242e-08
tplh                =  1.06259e-08 targ=  1.21798e-07 trig=  1.11173e-07
i_vdd_avg           =  -1.53281e-06 from=  1.00000e-08 to=  3.30004e-07
power_avg_uw        =  2.87126e+00


Total analysis time (seconds) = 1.01639

Total elapsed time (seconds) = 1.075 

Total DRAM available = 16384.000 MB.
DRAM currently available =  100.516 MB.
Maximum ngspice program size =   17.906 MB.
Current ngspice program size =   17.906 MB.

