
Note: No compatibility mode selected!


Circuit: GF180MCU library cell oai21_4 A1_to_ZN__A2=0,B=1

Doing analysis at TEMP = 89.630314 and TNOM = 27.000000

Using SPARSE 1.3 as Direct Linear Solver

Initial Transient Solution
--------------------------

Node                                   Voltage
----                                   -------
vdd                                    1.93689
a1                                           0
a2                                           0
b                                      1.93689
zn                                     1.93689
xu1.net_0                          4.74298e-07
xu1.net_1_0                            1.93689
xu1.net_1_1                            1.93689
xu1.net_1_2                            1.93689
xu1.net_1_3                            1.93689
vfix_b#branch                                0
vfix_a2#branch                               0
vin#branch                                   0
vdd#branch                        -4.24053e-10

 Reference value :  2.54625e-08
 Reference value :  5.53061e-08
 Reference value :  8.41561e-08
 Reference value :  1.15930e-07
 Reference value :  1.46470e-07
 Reference value :  1.76735e-07
 Reference value :  2.09711e-07
 Reference value :  2.42171e-07
 Reference value :  2.69280e-07
 Reference value :  2.99015e-07
 Reference value :  3.30400e-07
No. of Data Rows : 68034

  Measurements for Transient Analysis

tphl                =  5.83895e-10 targ=  2.77482e-08 trig=  2.71643e-08
tplh                =  2.12792e-09 targ=  1.05621e-07 trig=  1.03493e-07
i_vdd_avg           =  -1.04303e-06 from=  1.00000e-08 to=  3.30005e-07
power_avg_uw        =  2.02024e+00


Total analysis time (seconds) = 3.50988

Total elapsed time (seconds) = 3.579 

Total DRAM available = 16384.000 MB.
DRAM currently available =  101.031 MB.
Maximum ngspice program size =   16.594 MB.
Current ngspice program size =   16.594 MB.

