
Note: No compatibility mode selected!


Circuit: GF180MCU library cell xor2_1 A1_to_Z__A2=0

Doing analysis at TEMP = -12.918459 and TNOM = 27.000000

Using SPARSE 1.3 as Direct Linear Solver

Initial Transient Solution
--------------------------

Node                                   Voltage
----                                   -------
vdd                                    1.69495
a1                                           0
a2                                           0
xu1.i                                  1.69495
z                                  2.64007e-08
xu1.net_0                          2.45235e-09
xu1.net_2                              1.69495
xu1.net_1                             0.688419
vfix_a2#branch                               0
vin#branch                                   0
vdd#branch                        -1.02113e-11

 Reference value :  4.88372e-08
 Reference value :  1.16812e-07
 Reference value :  1.88518e-07
 Reference value :  2.63197e-07
 Reference value :  3.37432e-07
No. of Data Rows : 68032

  Measurements for Transient Analysis

tplh                =  7.22864e-09 targ=  3.39085e-08 trig=  2.66798e-08
tphl                =  3.09708e-09 targ=  1.05137e-07 trig=  1.02040e-07
i_vdd_avg           =  -1.64348e-06 from=  1.00000e-08 to=  3.30002e-07
power_avg_uw        =  2.78562e+00


Total analysis time (seconds) = 1.52054

Total elapsed time (seconds) = 1.595 

Total DRAM available = 16384.000 MB.
DRAM currently available =  108.391 MB.
Maximum ngspice program size =   18.719 MB.
Current ngspice program size =   18.719 MB.

