
Note: No compatibility mode selected!


Circuit: GF180MCU library cell nor2_1 A1_to_ZN__A2=0

Doing analysis at TEMP = 122.664760 and TNOM = 27.000000

Using SPARSE 1.3 as Direct Linear Solver

Initial Transient Solution
--------------------------

Node                                   Voltage
----                                   -------
vdd                                    1.63722
a1                                           0
a2                                           0
zn                                     1.63722
xu1.net_0                              1.63722
vfix_a2#branch                               0
vin#branch                                   0
vdd#branch                        -5.50763e-12

 Reference value :  1.15730e-07
 Reference value :  2.71450e-07
No. of Data Rows : 68032

  Measurements for Transient Analysis

tphl                =  1.88910e-09 targ=  2.74796e-08 trig=  2.55905e-08
tplh                =  4.89253e-09 targ=  1.03664e-07 trig=  9.87715e-08
i_vdd_avg           =  -2.55182e-07 from=  1.00000e-08 to=  3.30005e-07
power_avg_uw        =  4.17790e-01


Total analysis time (seconds) = 0.680494

Total elapsed time (seconds) = 0.754 

Total DRAM available = 16384.000 MB.
DRAM currently available =  167.062 MB.
Maximum ngspice program size =   18.219 MB.
Current ngspice program size =   18.219 MB.

