
Note: No compatibility mode selected!


Circuit: GF180MCU library cell nand3_4 A1_to_ZN__A2=1,A3=1

Doing analysis at TEMP = 95.841634 and TNOM = 27.000000

Using SPARSE 1.3 as Direct Linear Solver

Initial Transient Solution
--------------------------

Node                                   Voltage
----                                   -------
vdd                                    1.93548
a1                                           0
a2                                     1.93548
a3                                     1.93548
xu1.net_1_3                        2.32569e-09
xu1.net_0                          4.65139e-09
xu1.net_1_2                        2.32569e-09
xu1.net_1_1                        2.32569e-09
xu1.net_1_0                        2.32569e-09
xu1.net_0_0                        4.65139e-09
zn                                     1.93548
vfix_a3#branch                               0
vfix_a2#branch                               0
vin#branch                                   0
vdd#branch                        -8.85723e-12

 Reference value :  2.46725e-08
 Reference value :  5.69898e-08
 Reference value :  8.65148e-08
 Reference value :  1.18592e-07
 Reference value :  1.48492e-07
 Reference value :  1.78647e-07
 Reference value :  2.09745e-07
 Reference value :  2.36920e-07
 Reference value :  2.66572e-07
 Reference value :  2.96092e-07
 Reference value :  3.26632e-07
No. of Data Rows : 68030

  Measurements for Transient Analysis

tphl                =  1.37695e-09 targ=  2.72281e-08 trig=  2.58512e-08
tplh                =  1.81030e-09 targ=  1.01364e-07 trig=  9.95535e-08
i_vdd_avg           =  -5.50828e-07 from=  1.00000e-08 to=  3.30002e-07
power_avg_uw        =  1.06612e+00


Total analysis time (seconds) = 3.93323

Total elapsed time (seconds) = 3.994 

Total DRAM available = 16384.000 MB.
DRAM currently available =   67.906 MB.
Maximum ngspice program size =   14.203 MB.
Current ngspice program size =   14.156 MB.

