
Note: No compatibility mode selected!


Circuit: GF180MCU library cell nor2_1 A1_to_ZN__A2=0

Doing analysis at TEMP = 89.931810 and TNOM = 27.000000

Using SPARSE 1.3 as Direct Linear Solver

Initial Transient Solution
--------------------------

Node                                   Voltage
----                                   -------
vdd                                    1.62011
a1                                           0
a2                                           0
zn                                     1.62011
xu1.net_0                              1.62011
vfix_a2#branch                               0
vin#branch                                   0
vdd#branch                        -8.51695e-12

 Reference value :  9.50878e-08
 Reference value :  2.45438e-07
No. of Data Rows : 68032

  Measurements for Transient Analysis

tphl                =  5.78626e-09 targ=  3.24489e-08 trig=  2.66627e-08
tplh                =  1.83480e-08 targ=  1.20336e-07 trig=  1.01988e-07
i_vdd_avg           =  -1.84141e-06 from=  1.00000e-08 to=  3.30003e-07
power_avg_uw        =  2.98329e+00


Total analysis time (seconds) = 0.828618

Total elapsed time (seconds) = 0.904 

Total DRAM available = 16384.000 MB.
DRAM currently available =   93.203 MB.
Maximum ngspice program size =   17.047 MB.
Current ngspice program size =   17.047 MB.

