
Note: No compatibility mode selected!


Circuit: GF180MCU library cell oai21_1 A1_to_ZN__A2=0,B=1

Doing analysis at TEMP = -19.109059 and TNOM = 27.000000

Using SPARSE 1.3 as Direct Linear Solver

Initial Transient Solution
--------------------------

Node                                   Voltage
----                                   -------
vdd                                    1.87733
a1                                           0
a2                                           0
b                                      1.87733
zn                                     1.87733
xu1.net_0                          1.39902e-13
xu1.net_1                              1.87733
vfix_b#branch                                0
vfix_a2#branch                               0
vin#branch                                   0
vdd#branch                        -3.77468e-12

 Reference value :  7.04026e-08
 Reference value :  1.74683e-07
 Reference value :  2.73753e-07
No. of Data Rows : 68032

  Measurements for Transient Analysis

tphl                =  2.91821e-09 targ=  2.81807e-08 trig=  2.52625e-08
tplh                =  7.34093e-09 targ=  1.05129e-07 trig=  9.77876e-08
i_vdd_avg           =  -7.87384e-07 from=  1.00000e-08 to=  3.30003e-07
power_avg_uw        =  1.47818e+00


Total analysis time (seconds) = 1.10984

Total elapsed time (seconds) = 1.193 

Total DRAM available = 16384.000 MB.
DRAM currently available =  123.047 MB.
Maximum ngspice program size =   15.922 MB.
Current ngspice program size =   15.922 MB.

