
Note: No compatibility mode selected!


Circuit: GF180MCU library cell aoi21_1 A1_to_ZN__A2=1,B=0

Doing analysis at TEMP = 79.838865 and TNOM = 27.000000

Using SPARSE 1.3 as Direct Linear Solver

Initial Transient Solution
--------------------------

Node                                   Voltage
----                                   -------
vdd                                    1.86293
a1                                           0
a2                                     1.86293
b                                            0
xu1.net_0                          1.00215e-08
zn                                     1.86293
xu1.net_1                              1.86293
vfix_b#branch                                0
vfix_a2#branch                               0
vin#branch                                   0
vdd#branch                        -7.22174e-12

 Reference value :  7.14464e-08
 Reference value :  1.79780e-07
 Reference value :  2.82260e-07
No. of Data Rows : 68032

  Measurements for Transient Analysis

tphl                =  4.08772e-09 targ=  3.30247e-08 trig=  2.89369e-08
tplh                =  8.11853e-09 targ=  1.16929e-07 trig=  1.08811e-07
i_vdd_avg           =  -9.69571e-07 from=  1.00000e-08 to=  3.30000e-07
power_avg_uw        =  1.80624e+00


Total analysis time (seconds) = 1.0578

Total elapsed time (seconds) = 1.116 

Total DRAM available = 16384.000 MB.
DRAM currently available =  140.844 MB.
Maximum ngspice program size =   14.172 MB.
Current ngspice program size =   14.172 MB.

