
Note: No compatibility mode selected!


Circuit: GF180MCU library cell nor2_1 A1_to_ZN__A2=0

Doing analysis at TEMP = 35.086382 and TNOM = 27.000000

Using SPARSE 1.3 as Direct Linear Solver

Initial Transient Solution
--------------------------

Node                                   Voltage
----                                   -------
vdd                                    1.76272
a1                                           0
a2                                           0
zn                                     1.76272
xu1.net_0                              1.76272
vfix_a2#branch                               0
vin#branch                                   0
vdd#branch                        -3.55241e-12

 Reference value :  1.11256e-07
 Reference value :  2.68616e-07
No. of Data Rows : 68030

  Measurements for Transient Analysis

tphl                =  2.24246e-09 targ=  2.66257e-08 trig=  2.43833e-08
tplh                =  8.09718e-09 targ=  1.03247e-07 trig=  9.51498e-08
i_vdd_avg           =  -6.86641e-07 from=  1.00000e-08 to=  3.30001e-07
power_avg_uw        =  1.21036e+00


Total analysis time (seconds) = 0.730782

Total elapsed time (seconds) = 0.797 

Total DRAM available = 16384.000 MB.
DRAM currently available =   93.203 MB.
Maximum ngspice program size =   16.641 MB.
Current ngspice program size =   16.641 MB.

