
Note: No compatibility mode selected!


Circuit: GF180MCU library cell oai21_4 A1_to_ZN__A2=0,B=1

Doing analysis at TEMP = 35.772010 and TNOM = 27.000000

Using SPARSE 1.3 as Direct Linear Solver

Initial Transient Solution
--------------------------

Node                                   Voltage
----                                   -------
vdd                                    1.84263
a1                                           0
a2                                           0
b                                      1.84263
zn                                     1.84263
xu1.net_0                          9.03884e-10
xu1.net_1_0                            1.84263
xu1.net_1_1                            1.84263
xu1.net_1_2                            1.84263
xu1.net_1_3                            1.84263
vfix_b#branch                                0
vfix_a2#branch                               0
vin#branch                                   0
vdd#branch                        -1.54609e-11

 Reference value :  2.97431e-08
 Reference value :  6.42281e-08
 Reference value :  9.30881e-08
 Reference value :  1.24169e-07
 Reference value :  1.55364e-07
 Reference value :  1.87643e-07
 Reference value :  2.18318e-07
 Reference value :  2.49208e-07
 Reference value :  2.81249e-07
 Reference value :  3.12904e-07
 Reference value :  3.39619e-07
No. of Data Rows : 68032

  Measurements for Transient Analysis

tphl                =  8.90671e-10 targ=  2.49110e-08 trig=  2.40203e-08
tplh                =  2.69749e-09 targ=  9.67584e-08 trig=  9.40609e-08
i_vdd_avg           =  -1.63956e-06 from=  1.00000e-08 to=  3.30004e-07
power_avg_uw        =  3.02111e+00


Total analysis time (seconds) = 3.44206

Total elapsed time (seconds) = 3.503 

Total DRAM available = 16384.000 MB.
DRAM currently available =   96.375 MB.
Maximum ngspice program size =   13.203 MB.
Current ngspice program size =   13.203 MB.

