
Note: No compatibility mode selected!


Circuit: GF180MCU library cell inv_4 I_to_ZN

Doing analysis at TEMP = -36.543793 and TNOM = 27.000000

Using SPARSE 1.3 as Direct Linear Solver

Initial Transient Solution
--------------------------

Node                                   Voltage
----                                   -------
vdd                                    1.70939
i                                            0
zn                                     1.70939
vin#branch                                   0
vdd#branch                        -6.87776e-12

 Reference value :  6.39109e-08
 Reference value :  1.50034e-07
 Reference value :  2.46731e-07
 Reference value :  3.39899e-07
No. of Data Rows : 68034

  Measurements for Transient Analysis

tphl                =  3.13461e-10 targ=  2.44101e-08 trig=  2.40967e-08
tplh                =  7.08232e-10 targ=  9.49983e-08 trig=  9.42901e-08
i_vdd_avg           =  -7.87473e-07 from=  1.00000e-08 to=  3.30004e-07
power_avg_uw        =  1.34610e+00


Total analysis time (seconds) = 1.39134

Total elapsed time (seconds) = 1.436 

Total DRAM available = 16384.000 MB.
DRAM currently available =  126.062 MB.
Maximum ngspice program size =   13.266 MB.
Current ngspice program size =   13.062 MB.

