
Note: No compatibility mode selected!


Circuit: GF180MCU library cell inv_4 I_to_ZN

Doing analysis at TEMP = -13.360998 and TNOM = 27.000000

Using SPARSE 1.3 as Direct Linear Solver

Initial Transient Solution
--------------------------

Node                                   Voltage
----                                   -------
vdd                                    1.92019
i                                            0
zn                                     1.92019
vin#branch                                   0
vdd#branch                        -7.89096e-12

 Reference value :  6.97714e-08
 Reference value :  1.58055e-07
 Reference value :  2.61535e-07
No. of Data Rows : 68032

  Measurements for Transient Analysis

tphl                =  6.01774e-10 targ=  2.50537e-08 trig=  2.44520e-08
tplh                =  1.13418e-09 targ=  9.64900e-08 trig=  9.53559e-08
i_vdd_avg           =  -2.35740e-06 from=  1.00000e-08 to=  3.30000e-07
power_avg_uw        =  4.52666e+00


Total analysis time (seconds) = 1.18623

Total elapsed time (seconds) = 1.247 

Total DRAM available = 16384.000 MB.
DRAM currently available =  109.328 MB.
Maximum ngspice program size =   16.172 MB.
Current ngspice program size =   16.172 MB.

