
Note: No compatibility mode selected!


Circuit: GF180MCU library cell oai21_4 A1_to_ZN__A2=0,B=1

Doing analysis at TEMP = -2.105038 and TNOM = 27.000000

Using SPARSE 1.3 as Direct Linear Solver

Initial Transient Solution
--------------------------

Node                                   Voltage
----                                   -------
vdd                                    1.74662
a1                                           0
a2                                           0
b                                      1.74662
zn                                     1.74662
xu1.net_0                          8.98215e-10
xu1.net_1_0                            1.74662
xu1.net_1_1                            1.74662
xu1.net_1_2                            1.74662
xu1.net_1_3                            1.74662
vfix_b#branch                                0
vfix_a2#branch                               0
vin#branch                                   0
vdd#branch                        -1.49349e-11

 Reference value :  2.27664e-08
 Reference value :  5.33744e-08
 Reference value :  8.45844e-08
 Reference value :  1.14156e-07
 Reference value :  1.45006e-07
 Reference value :  1.75441e-07
 Reference value :  2.06754e-07
 Reference value :  2.39459e-07
 Reference value :  2.65576e-07
 Reference value :  2.95941e-07
 Reference value :  3.26441e-07
No. of Data Rows : 68030

  Measurements for Transient Analysis

tphl                =  1.07459e-09 targ=  2.75030e-08 trig=  2.64284e-08
tplh                =  2.47458e-09 targ=  1.03760e-07 trig=  1.01285e-07
i_vdd_avg           =  -1.13567e-06 from=  1.00000e-08 to=  3.30001e-07
power_avg_uw        =  1.98358e+00


Total analysis time (seconds) = 3.66158

Total elapsed time (seconds) = 3.742 

Total DRAM available = 16384.000 MB.
DRAM currently available =   82.375 MB.
Maximum ngspice program size =   17.688 MB.
Current ngspice program size =   17.688 MB.

