
Note: No compatibility mode selected!


Circuit: GF180MCU library cell oai21_4 A1_to_ZN__A2=0,B=1

Doing analysis at TEMP = 61.525462 and TNOM = 27.000000

Using SPARSE 1.3 as Direct Linear Solver

Initial Transient Solution
--------------------------

Node                                   Voltage
----                                   -------
vdd                                    1.64884
a1                                           0
a2                                           0
b                                      1.64884
zn                                     1.64884
xu1.net_0                          4.89874e-10
xu1.net_1_0                            1.64884
xu1.net_1_1                            1.64884
xu1.net_1_2                            1.64884
xu1.net_1_3                            1.64884
vfix_b#branch                                0
vfix_a2#branch                               0
vin#branch                                   0
vdd#branch                        -1.34654e-11

 Reference value :  2.24164e-08
 Reference value :  5.42425e-08
 Reference value :  8.61525e-08
 Reference value :  1.18127e-07
 Reference value :  1.50527e-07
 Reference value :  1.81947e-07
 Reference value :  2.12262e-07
 Reference value :  2.44632e-07
 Reference value :  2.72362e-07
 Reference value :  3.01947e-07
 Reference value :  3.32242e-07
No. of Data Rows : 68032

  Measurements for Transient Analysis

tphl                =  2.14191e-09 targ=  2.78394e-08 trig=  2.56975e-08
tplh                =  5.31292e-09 targ=  1.04405e-07 trig=  9.90925e-08
i_vdd_avg           =  -9.98511e-07 from=  1.00000e-08 to=  3.30002e-07
power_avg_uw        =  1.64638e+00


Total analysis time (seconds) = 3.5014

Total elapsed time (seconds) = 3.571 

Total DRAM available = 16384.000 MB.
DRAM currently available =   79.609 MB.
Maximum ngspice program size =   15.891 MB.
Current ngspice program size =   15.891 MB.

