
Note: No compatibility mode selected!


Circuit: GF180MCU library cell aoi21_4 A1_to_ZN__A2=1,B=0

Doing analysis at TEMP = -37.504292 and TNOM = 27.000000

Using SPARSE 1.3 as Direct Linear Solver

Initial Transient Solution
--------------------------

Node                                   Voltage
----                                   -------
vdd                                    1.89064
a1                                           0
a2                                     1.89064
b                                            0
xu1.net_0_0                        1.07675e-11
zn                                     1.89064
xu1.net_0_1                        1.07672e-11
xu1.net_0_2                        1.07675e-11
xu1.net_0_3                        1.07672e-11
xu1.net_1                              1.89064
vfix_b#branch                                0
vfix_a2#branch                               0
vin#branch                                   0
vdd#branch                        -1.52357e-11

 Reference value :  2.14464e-08
 Reference value :  5.36058e-08
 Reference value :  8.38508e-08
 Reference value :  1.15104e-07
 Reference value :  1.48689e-07
 Reference value :  1.81419e-07
 Reference value :  2.13436e-07
 Reference value :  2.44966e-07
 Reference value :  2.72881e-07
 Reference value :  3.02084e-07
 Reference value :  3.33324e-07
No. of Data Rows : 68034

  Measurements for Transient Analysis

tphl                =  1.21590e-09 targ=  3.00676e-08 trig=  2.88517e-08
tplh                =  3.33904e-09 targ=  1.11894e-07 trig=  1.08555e-07
i_vdd_avg           =  -1.64216e-06 from=  1.00000e-08 to=  3.30004e-07
power_avg_uw        =  3.10473e+00


Total analysis time (seconds) = 3.48799

Total elapsed time (seconds) = 3.570 

Total DRAM available = 16384.000 MB.
DRAM currently available =   92.828 MB.
Maximum ngspice program size =   17.469 MB.
Current ngspice program size =   17.469 MB.

