
Note: No compatibility mode selected!


Circuit: GF180MCU library cell oai21_1 A1_to_ZN__A2=0,B=1

Doing analysis at TEMP = -5.393795 and TNOM = 27.000000

Using SPARSE 1.3 as Direct Linear Solver

Initial Transient Solution
--------------------------

Node                                   Voltage
----                                   -------
vdd                                    1.95345
a1                                           0
a2                                           0
b                                      1.95345
zn                                     1.95345
xu1.net_0                          1.96644e-11
xu1.net_1                              1.95345
vfix_b#branch                                0
vfix_a2#branch                               0
vin#branch                                   0
vdd#branch                        -3.93114e-12

 Reference value :  8.00757e-08
 Reference value :  1.75624e-07
 Reference value :  2.75514e-07
No. of Data Rows : 68034

  Measurements for Transient Analysis

tphl                =  4.44911e-09 targ=  2.88057e-08 trig=  2.43566e-08
tplh                =  1.16005e-08 targ=  1.06670e-07 trig=  9.50697e-08
i_vdd_avg           =  -2.55061e-06 from=  1.00000e-08 to=  3.30004e-07
power_avg_uw        =  4.98248e+00


Total analysis time (seconds) = 1.14187

Total elapsed time (seconds) = 1.220 

Total DRAM available = 16384.000 MB.
DRAM currently available =  142.516 MB.
Maximum ngspice program size =   16.453 MB.
Current ngspice program size =   16.453 MB.

