
Note: No compatibility mode selected!


Circuit: GF180MCU library cell nand3_4 A1_to_ZN__A2=1,A3=1

Doing analysis at TEMP = -32.679421 and TNOM = 27.000000

Using SPARSE 1.3 as Direct Linear Solver

Initial Transient Solution
--------------------------

Node                                   Voltage
----                                   -------
vdd                                     1.7461
a1                                           0
a2                                      1.7461
a3                                      1.7461
xu1.net_1_3                        1.94002e-11
xu1.net_0                          3.88005e-11
xu1.net_1_2                        1.94003e-11
xu1.net_1_1                        1.94002e-11
xu1.net_1_0                        1.94003e-11
xu1.net_0_0                        3.88005e-11
zn                                      1.7461
vfix_a3#branch                               0
vfix_a2#branch                               0
vin#branch                                   0
vdd#branch                        -7.04533e-12

 Reference value :  2.42875e-08
 Reference value :  5.54563e-08
 Reference value :  8.45613e-08
 Reference value :  1.14725e-07
 Reference value :  1.44685e-07
 Reference value :  1.75970e-07
 Reference value :  2.08241e-07
 Reference value :  2.40931e-07
 Reference value :  2.73550e-07
 Reference value :  3.16095e-07
No. of Data Rows : 68032

  Measurements for Transient Analysis

tphl                =  1.13501e-09 targ=  2.55669e-08 trig=  2.44319e-08
tplh                =  1.35976e-09 targ=  9.66554e-08 trig=  9.52957e-08
i_vdd_avg           =  -1.88363e-06 from=  1.00000e-08 to=  3.30000e-07
power_avg_uw        =  3.28901e+00


Total analysis time (seconds) = 3.23603

Total elapsed time (seconds) = 3.308 

Total DRAM available = 16384.000 MB.
DRAM currently available =   99.266 MB.
Maximum ngspice program size =   15.969 MB.
Current ngspice program size =   15.969 MB.

