
Note: No compatibility mode selected!


Circuit: GF180MCU library cell mux2_1 I0_to_Z__I1=0,S=0

Doing analysis at TEMP = -10.804694 and TNOM = 27.000000

Using SPARSE 1.3 as Direct Linear Solver

Initial Transient Solution
--------------------------

Node                                   Voltage
----                                   -------
vdd                                    1.72116
i0                                           0
i1                                           0
s                                            0
xu1.int04                              1.72116
z                                  7.39067e-09
xu1.net_1                            0.0222347
xu1.net_3                               1.2498
xu1.sel1_n                             1.72116
xu1.net_0                              1.72116
xu1.net_2                              1.72116
vfix_s#branch                                0
vfix_i1#branch                               0
vin#branch                                   0
vdd#branch                         -9.9934e-12

 Reference value :  5.15077e-08
 Reference value :  1.11373e-07
 Reference value :  1.66053e-07
 Reference value :  2.19273e-07
 Reference value :  2.74183e-07
 Reference value :  3.35318e-07
No. of Data Rows : 68032

  Measurements for Transient Analysis

tplh                =  4.05851e-09 targ=  3.23986e-08 trig=  2.83401e-08
tphl                =  3.79019e-09 targ=  1.10810e-07 trig=  1.07020e-07
i_vdd_avg           =  -1.82656e-06 from=  1.00000e-08 to=  3.30003e-07
power_avg_uw        =  3.14380e+00


Total analysis time (seconds) = 1.86198

Total elapsed time (seconds) = 1.926 

Total DRAM available = 16384.000 MB.
DRAM currently available =   95.297 MB.
Maximum ngspice program size =   13.594 MB.
Current ngspice program size =   13.578 MB.

