
Note: No compatibility mode selected!


Circuit: GF180MCU library cell xor2_1 A1_to_Z__A2=0

Doing analysis at TEMP = 103.661870 and TNOM = 27.000000

Using SPARSE 1.3 as Direct Linear Solver

Initial Transient Solution
--------------------------

Node                                   Voltage
----                                   -------
vdd                                    1.78872
a1                                           0
a2                                           0
xu1.i                                  1.78871
z                                  6.73585e-08
xu1.net_0                          2.67277e-08
xu1.net_2                              1.78872
xu1.net_1                             0.713597
vfix_a2#branch                               0
vin#branch                                   0
vdd#branch                        -1.46381e-11

 Reference value :  4.48612e-08
 Reference value :  1.13850e-07
 Reference value :  1.83895e-07
 Reference value :  2.61515e-07
 Reference value :  3.29725e-07
No. of Data Rows : 68034

  Measurements for Transient Analysis

tplh                =  1.40021e-08 targ=  3.90339e-08 trig=  2.50319e-08
tphl                =  4.85251e-09 targ=  1.01948e-07 trig=  9.70956e-08
i_vdd_avg           =  -1.22320e-06 from=  1.00000e-08 to=  3.30005e-07
power_avg_uw        =  2.18795e+00


Total analysis time (seconds) = 1.59698

Total elapsed time (seconds) = 1.668 

Total DRAM available = 16384.000 MB.
DRAM currently available =  130.047 MB.
Maximum ngspice program size =   17.750 MB.
Current ngspice program size =   17.750 MB.

