
Note: No compatibility mode selected!


Circuit: GF180MCU library cell aoi21_1 A1_to_ZN__A2=1,B=0

Doing analysis at TEMP = -2.087923 and TNOM = 27.000000

Using SPARSE 1.3 as Direct Linear Solver

Initial Transient Solution
--------------------------

Node                                   Voltage
----                                   -------
vdd                                      1.778
a1                                           0
a2                                       1.778
b                                            0
xu1.net_0                          5.91926e-13
zn                                       1.778
xu1.net_1                                1.778
vfix_b#branch                                0
vfix_a2#branch                               0
vin#branch                                   0
vdd#branch                        -3.57621e-12

 Reference value :  7.17505e-08
 Reference value :  1.74373e-07
 Reference value :  2.82888e-07
No. of Data Rows : 68034

  Measurements for Transient Analysis

tphl                =  6.04729e-09 targ=  3.60013e-08 trig=  2.99540e-08
tplh                =  1.24931e-08 targ=  1.24355e-07 trig=  1.11862e-07
i_vdd_avg           =  -8.21823e-07 from=  1.00000e-08 to=  3.30003e-07
power_avg_uw        =  1.46120e+00


Total analysis time (seconds) = 1.05529

Total elapsed time (seconds) = 1.129 

Total DRAM available = 16384.000 MB.
DRAM currently available =   84.031 MB.
Maximum ngspice program size =   18.297 MB.
Current ngspice program size =   18.297 MB.

