
Note: No compatibility mode selected!


Circuit: GF180MCU library cell inv_4 I_to_ZN

Doing analysis at TEMP = 12.632460 and TNOM = 27.000000

Using SPARSE 1.3 as Direct Linear Solver

Initial Transient Solution
--------------------------

Node                                   Voltage
----                                   -------
vdd                                    1.72447
i                                            0
zn                                     1.72447
vin#branch                                   0
vdd#branch                         -8.4377e-12

 Reference value :  7.24221e-08
 Reference value :  1.73637e-07
 Reference value :  2.66282e-07
No. of Data Rows : 68032

  Measurements for Transient Analysis

tphl                =  1.04409e-09 targ=  2.85489e-08 trig=  2.75048e-08
tplh                =  2.45219e-09 targ=  1.06967e-07 trig=  1.04514e-07
i_vdd_avg           =  -1.39396e-06 from=  1.00000e-08 to=  3.30002e-07
power_avg_uw        =  2.40384e+00


Total analysis time (seconds) = 1.15063

Total elapsed time (seconds) = 1.220 

Total DRAM available = 16384.000 MB.
DRAM currently available =  126.062 MB.
Maximum ngspice program size =   15.984 MB.
Current ngspice program size =   15.984 MB.

