
Note: No compatibility mode selected!


Circuit: GF180MCU library cell mux2_1 I0_to_Z__I1=0,S=0

Doing analysis at TEMP = 27.896702 and TNOM = 27.000000

Using SPARSE 1.3 as Direct Linear Solver

Initial Transient Solution
--------------------------

Node                                   Voltage
----                                   -------
vdd                                     1.7456
i0                                           0
i1                                           0
s                                            0
xu1.int04                              1.74559
z                                  1.53373e-08
xu1.net_1                           0.00456166
xu1.net_3                              1.15695
xu1.sel1_n                              1.7456
xu1.net_0                               1.7456
xu1.net_2                               1.7456
vfix_s#branch                                0
vfix_i1#branch                               0
vin#branch                                   0
vdd#branch                        -9.46695e-12

 Reference value :  4.29457e-08
 Reference value :  1.02849e-07
 Reference value :  1.59974e-07
 Reference value :  2.09321e-07
 Reference value :  2.66009e-07
 Reference value :  3.18499e-07
No. of Data Rows : 68034

  Measurements for Transient Analysis

tplh                =  1.22092e-08 targ=  3.73983e-08 trig=  2.51891e-08
tphl                =  6.82142e-09 targ=  1.04389e-07 trig=  9.75673e-08
i_vdd_avg           =  -2.03283e-06 from=  1.00000e-08 to=  3.30004e-07
power_avg_uw        =  3.54850e+00


Total analysis time (seconds) = 1.92499

Total elapsed time (seconds) = 1.997 

Total DRAM available = 16384.000 MB.
DRAM currently available =   85.844 MB.
Maximum ngspice program size =   15.766 MB.
Current ngspice program size =   15.766 MB.

