
Note: No compatibility mode selected!


Circuit: GF180MCU library cell aoi21_1 A1_to_ZN__A2=1,B=0

Doing analysis at TEMP = -17.244334 and TNOM = 27.000000

Using SPARSE 1.3 as Direct Linear Solver

Initial Transient Solution
--------------------------

Node                                   Voltage
----                                   -------
vdd                                    1.92975
a1                                           0
a2                                     1.92975
b                                            0
xu1.net_0                          1.01518e-10
zn                                     1.92975
xu1.net_1                              1.92975
vfix_b#branch                                0
vfix_a2#branch                               0
vin#branch                                   0
vdd#branch                        -3.94643e-12

 Reference value :  7.45781e-08
 Reference value :  1.82564e-07
 Reference value :  2.90289e-07
No. of Data Rows : 68032

  Measurements for Transient Analysis

tphl                =  6.91856e-10 targ=  2.81197e-08 trig=  2.74278e-08
tplh                =  2.13093e-09 targ=  1.06414e-07 trig=  1.04283e-07
i_vdd_avg           =  -2.65529e-07 from=  1.00000e-08 to=  3.30004e-07
power_avg_uw        =  5.12404e-01


Total analysis time (seconds) = 0.994985

Total elapsed time (seconds) = 1.081 

Total DRAM available = 16384.000 MB.
DRAM currently available =   94.266 MB.
Maximum ngspice program size =   17.297 MB.
Current ngspice program size =   17.297 MB.

