
Note: No compatibility mode selected!


Circuit: GF180MCU library cell mux2_1 I0_to_Z__I1=0,S=0

Doing analysis at TEMP = -28.059645 and TNOM = 27.000000

Using SPARSE 1.3 as Direct Linear Solver

Initial Transient Solution
--------------------------

Node                                   Voltage
----                                   -------
vdd                                    1.66035
i0                                           0
i1                                           0
s                                            0
xu1.int04                              1.66035
z                                  9.42191e-09
xu1.net_1                          0.000475339
xu1.net_3                              1.08486
xu1.sel1_n                             1.66035
xu1.net_0                              1.66035
xu1.net_2                              1.66035
vfix_s#branch                                0
vfix_i1#branch                               0
vin#branch                                   0
vdd#branch                        -8.95385e-12

 Reference value :  5.11259e-08
 Reference value :  1.10764e-07
 Reference value :  1.67669e-07
 Reference value :  2.20446e-07
 Reference value :  2.75789e-07
 Reference value :  3.34179e-07
No. of Data Rows : 68034

  Measurements for Transient Analysis

tplh                =  6.47309e-09 targ=  3.11523e-08 trig=  2.46792e-08
tphl                =  3.78101e-09 targ=  9.98186e-08 trig=  9.60376e-08
i_vdd_avg           =  -1.63975e-06 from=  1.00000e-08 to=  3.30004e-07
power_avg_uw        =  2.72255e+00


Total analysis time (seconds) = 1.85892

Total elapsed time (seconds) = 1.925 

Total DRAM available = 16384.000 MB.
DRAM currently available =   74.609 MB.
Maximum ngspice program size =   16.891 MB.
Current ngspice program size =   16.891 MB.

