
Note: No compatibility mode selected!


Circuit: GF180MCU library cell xor2_4 A1_to_Z__A2=0

Doing analysis at TEMP = 105.927720 and TNOM = 27.000000

Using SPARSE 1.3 as Direct Linear Solver

Initial Transient Solution
--------------------------

Node                                   Voltage
----                                   -------
vdd                                    1.83389
a1                                           0
a2                                           0
xu1.net_2                            0.0397613
xu1.i                                  1.83389
xu1.net_0                          8.95207e-09
xu1.z_neg                              1.83389
z                                  1.84226e-08
xu1.net_1                              1.83389
vfix_a2#branch                               0
vin#branch                                   0
vdd#branch                        -1.49337e-11

 Reference value :  2.86975e-08
 Reference value :  6.77155e-08
 Reference value :  1.07070e-07
 Reference value :  1.45418e-07
 Reference value :  1.87038e-07
 Reference value :  2.26295e-07
 Reference value :  2.67570e-07
 Reference value :  3.11143e-07
No. of Data Rows : 68034

  Measurements for Transient Analysis

tplh                =  4.17586e-09 targ=  3.18574e-08 trig=  2.76815e-08
tphl                =  5.36689e-09 targ=  1.10411e-07 trig=  1.05044e-07
i_vdd_avg           =  -1.57884e-06 from=  1.00000e-08 to=  3.30003e-07
power_avg_uw        =  2.89542e+00


Total analysis time (seconds) = 2.73117

Total elapsed time (seconds) = 2.821 

Total DRAM available = 16384.000 MB.
DRAM currently available =  125.969 MB.
Maximum ngspice program size =   17.359 MB.
Current ngspice program size =   17.359 MB.

