
Note: No compatibility mode selected!


Circuit: GF180MCU library cell aoi21_1 A1_to_ZN__A2=1,B=0

Doing analysis at TEMP = 16.899199 and TNOM = 27.000000

Using SPARSE 1.3 as Direct Linear Solver

Initial Transient Solution
--------------------------

Node                                   Voltage
----                                   -------
vdd                                    1.63494
a1                                           0
a2                                     1.63494
b                                            0
xu1.net_0                          4.95844e-12
zn                                     1.63494
xu1.net_1                              1.63494
vfix_b#branch                                0
vfix_a2#branch                               0
vin#branch                                   0
vdd#branch                        -3.29121e-12

 Reference value :  7.40672e-08
 Reference value :  1.75032e-07
 Reference value :  2.75642e-07
No. of Data Rows : 68032

  Measurements for Transient Analysis

tphl                =  1.33818e-09 targ=  2.66630e-08 trig=  2.53249e-08
tplh                =  2.73597e-09 targ=  1.00711e-07 trig=  9.79746e-08
i_vdd_avg           =  -1.18729e-07 from=  1.00000e-08 to=  3.30002e-07
power_avg_uw        =  1.94115e-01


Total analysis time (seconds) = 1.02342

Total elapsed time (seconds) = 1.097 

Total DRAM available = 16384.000 MB.
DRAM currently available =  113.406 MB.
Maximum ngspice program size =   18.438 MB.
Current ngspice program size =   18.438 MB.

