
Note: No compatibility mode selected!


Circuit: GF180MCU library cell mux2_4 I0_to_Z__I1=0,S=0

Doing analysis at TEMP = 93.248374 and TNOM = 27.000000

Using SPARSE 1.3 as Direct Linear Solver

Initial Transient Solution
--------------------------

Node                                   Voltage
----                                   -------
vdd                                    1.80479
i0                                           0
i1                                           0
s                                            0
xu1.int04                              1.80479
z                                  1.79325e-08
xu1.net_1                            0.0235359
xu1.net_3                              1.21437
xu1.sel1_n                             1.80479
xu1.net_0                              1.80479
xu1.net_2                              1.80479
vfix_s#branch                                0
vfix_i1#branch                               0
vin#branch                                   0
vdd#branch                        -1.59552e-11

 Reference value :  3.81678e-08
 Reference value :  8.30778e-08
 Reference value :  1.26218e-07
 Reference value :  1.66153e-07
 Reference value :  2.05983e-07
 Reference value :  2.43183e-07
 Reference value :  2.82718e-07
 Reference value :  3.23228e-07
No. of Data Rows : 68032

  Measurements for Transient Analysis

tplh                =  4.75323e-09 targ=  3.42084e-08 trig=  2.94551e-08
tphl                =  6.15237e-09 targ=  1.16518e-07 trig=  1.10365e-07
i_vdd_avg           =  -1.58940e-06 from=  1.00000e-08 to=  3.30003e-07
power_avg_uw        =  2.86853e+00


Total analysis time (seconds) = 2.59087

Total elapsed time (seconds) = 2.657 

Total DRAM available = 16384.000 MB.
DRAM currently available =   74.953 MB.
Maximum ngspice program size =   15.219 MB.
Current ngspice program size =   15.219 MB.

