
Note: No compatibility mode selected!


Circuit: GF180MCU library cell mux2_4 I0_to_Z__I1=0,S=0

Doing analysis at TEMP = 33.622294 and TNOM = 27.000000

Using SPARSE 1.3 as Direct Linear Solver

Initial Transient Solution
--------------------------

Node                                   Voltage
----                                   -------
vdd                                    1.70728
i0                                           0
i1                                           0
s                                            0
xu1.int04                              1.70728
z                                  1.57918e-08
xu1.net_1                          0.000934197
xu1.net_3                              1.03974
xu1.sel1_n                             1.70728
xu1.net_0                              1.70728
xu1.net_2                              1.70728
vfix_s#branch                                0
vfix_i1#branch                               0
vin#branch                                   0
vdd#branch                         -1.4401e-11

 Reference value :  3.01725e-08
 Reference value :  6.72602e-08
 Reference value :  1.10183e-07
 Reference value :  1.50133e-07
 Reference value :  1.88453e-07
 Reference value :  2.21040e-07
 Reference value :  2.62505e-07
 Reference value :  3.03323e-07
 Reference value :  3.39228e-07
No. of Data Rows : 68034

  Measurements for Transient Analysis

tplh                =  3.70958e-09 targ=  3.16035e-08 trig=  2.78939e-08
tphl                =  5.42042e-09 targ=  1.11102e-07 trig=  1.05682e-07
i_vdd_avg           =  -6.97121e-07 from=  1.00000e-08 to=  3.30003e-07
power_avg_uw        =  1.19018e+00


Total analysis time (seconds) = 2.88941

Total elapsed time (seconds) = 2.952 

Total DRAM available = 16384.000 MB.
DRAM currently available =  157.578 MB.
Maximum ngspice program size =   14.344 MB.
Current ngspice program size =   14.344 MB.

