
Note: No compatibility mode selected!


Circuit: GF180MCU library cell oai21_1 A1_to_ZN__A2=0,B=1

Doing analysis at TEMP = 25.268405 and TNOM = 27.000000

Using SPARSE 1.3 as Direct Linear Solver

Initial Transient Solution
--------------------------

Node                                   Voltage
----                                   -------
vdd                                    1.85824
a1                                           0
a2                                           0
b                                      1.85824
zn                                     1.85824
xu1.net_0                          2.01494e-11
xu1.net_1                              1.85824
vfix_b#branch                                0
vfix_a2#branch                               0
vin#branch                                   0
vdd#branch                        -3.73915e-12

 Reference value :  7.28103e-08
 Reference value :  1.73688e-07
 Reference value :  2.81653e-07
No. of Data Rows : 68034

  Measurements for Transient Analysis

tphl                =  8.50326e-09 targ=  3.76622e-08 trig=  2.91589e-08
tplh                =  2.02213e-08 targ=  1.29698e-07 trig=  1.09477e-07
i_vdd_avg           =  -1.85480e-06 from=  1.00000e-08 to=  3.30003e-07
power_avg_uw        =  3.44667e+00


Total analysis time (seconds) = 1.1243

Total elapsed time (seconds) = 1.224 

Total DRAM available = 16384.000 MB.
DRAM currently available =  142.516 MB.
Maximum ngspice program size =   16.766 MB.
Current ngspice program size =   16.766 MB.

