
Note: No compatibility mode selected!


Circuit: GF180MCU library cell inv_1 I_to_ZN

Doing analysis at TEMP = 33.871028 and TNOM = 27.000000

Using SPARSE 1.3 as Direct Linear Solver

Initial Transient Solution
--------------------------

Node                                   Voltage
----                                   -------
vdd                                    1.85036
i                                            0
zn                                     1.85036
vin#branch                                   0
vdd#branch                        -1.92956e-12

 Reference value :  1.93928e-07
No. of Data Rows : 68030

  Measurements for Transient Analysis

tphl                =  4.18165e-09 targ=  3.38373e-08 trig=  2.96556e-08
tplh                =  7.16302e-09 targ=  1.18130e-07 trig=  1.10967e-07
i_vdd_avg           =  -1.41890e-06 from=  1.00000e-08 to=  3.30000e-07
power_avg_uw        =  2.62547e+00


Total analysis time (seconds) = 0.467498

Total elapsed time (seconds) = 0.527 

Total DRAM available = 16384.000 MB.
DRAM currently available =  126.141 MB.
Maximum ngspice program size =   14.891 MB.
Current ngspice program size =   14.891 MB.

