
Note: No compatibility mode selected!


Circuit: GF180MCU library cell nor2_4 A1_to_ZN__A2=0

Doing analysis at TEMP = -27.054523 and TNOM = 27.000000

Using SPARSE 1.3 as Direct Linear Solver

Initial Transient Solution
--------------------------

Node                                   Voltage
----                                   -------
vdd                                     1.9567
a1                                           0
a2                                           0
zn                                      1.9567
xu1.net_0_0                             1.9567
xu1.net_0_1                             1.9567
xu1.net_0_2                             1.9567
xu1.net_0_3                             1.9567
vfix_a2#branch                               0
vin#branch                                   0
vdd#branch                         -1.5831e-11

 Reference value :  3.28885e-08
 Reference value :  8.09285e-08
 Reference value :  1.27359e-07
 Reference value :  1.75734e-07
 Reference value :  2.22303e-07
 Reference value :  2.71044e-07
 Reference value :  3.19509e-07
No. of Data Rows : 68032

  Measurements for Transient Analysis

tphl                =  4.58125e-10 targ=  2.73336e-08 trig=  2.68755e-08
tplh                =  1.62735e-09 targ=  1.04254e-07 trig=  1.02626e-07
i_vdd_avg           =  -8.10726e-07 from=  1.00000e-08 to=  3.30004e-07
power_avg_uw        =  1.58635e+00


Total analysis time (seconds) = 2.29556

Total elapsed time (seconds) = 2.355 

Total DRAM available = 16384.000 MB.
DRAM currently available =  118.375 MB.
Maximum ngspice program size =   14.609 MB.
Current ngspice program size =   14.609 MB.

