
Note: No compatibility mode selected!


Circuit: GF180MCU library cell nand3_4 A1_to_ZN__A2=1,A3=1

Doing analysis at TEMP = 43.393409 and TNOM = 27.000000

Using SPARSE 1.3 as Direct Linear Solver

Initial Transient Solution
--------------------------

Node                                   Voltage
----                                   -------
vdd                                    1.73481
a1                                           0
a2                                     1.73481
a3                                     1.73481
xu1.net_1_3                        8.45583e-10
xu1.net_0                          1.69117e-09
xu1.net_1_2                        8.45583e-10
xu1.net_1_1                        8.45583e-10
xu1.net_1_0                        8.45583e-10
xu1.net_0_0                        1.69117e-09
zn                                     1.73481
vfix_a3#branch                               0
vfix_a2#branch                               0
vin#branch                                   0
vdd#branch                        -7.52088e-12

 Reference value :  2.36814e-08
 Reference value :  5.46895e-08
 Reference value :  8.62245e-08
 Reference value :  1.16082e-07
 Reference value :  1.46922e-07
 Reference value :  1.79082e-07
 Reference value :  2.08015e-07
 Reference value :  2.35990e-07
 Reference value :  2.67232e-07
 Reference value :  2.96312e-07
 Reference value :  3.26037e-07
No. of Data Rows : 68030

  Measurements for Transient Analysis

tphl                =  2.68194e-09 targ=  2.90779e-08 trig=  2.63960e-08
tplh                =  3.36543e-09 targ=  1.04553e-07 trig=  1.01188e-07
i_vdd_avg           =  -1.83309e-06 from=  1.00000e-08 to=  3.30002e-07
power_avg_uw        =  3.18006e+00


Total analysis time (seconds) = 3.95706

Total elapsed time (seconds) = 4.030 

Total DRAM available = 16384.000 MB.
DRAM currently available =   86.188 MB.
Maximum ngspice program size =   16.219 MB.
Current ngspice program size =   16.219 MB.

