
Note: No compatibility mode selected!


Circuit: GF180MCU library cell xor2_1 A1_to_Z__A2=0

Doing analysis at TEMP = -37.427635 and TNOM = 27.000000

Using SPARSE 1.3 as Direct Linear Solver

Initial Transient Solution
--------------------------

Node                                   Voltage
----                                   -------
vdd                                    1.80243
a1                                           0
a2                                           0
xu1.i                                  1.80243
z                                  3.97604e-08
xu1.net_0                          1.39371e-13
xu1.net_2                              1.80243
xu1.net_1                             0.964628
vfix_a2#branch                               0
vin#branch                                   0
vdd#branch                        -9.76572e-12

 Reference value :  4.40521e-08
 Reference value :  1.15082e-07
 Reference value :  1.86243e-07
 Reference value :  2.59652e-07
 Reference value :  3.33717e-07
No. of Data Rows : 68032

  Measurements for Transient Analysis

tplh                =  3.48343e-09 targ=  2.97782e-08 trig=  2.62948e-08
tphl                =  3.17314e-09 targ=  1.04058e-07 trig=  1.00884e-07
i_vdd_avg           =  -3.01801e-07 from=  1.00000e-08 to=  3.30002e-07
power_avg_uw        =  5.43973e-01


Total analysis time (seconds) = 1.54886

Total elapsed time (seconds) = 1.616 

Total DRAM available = 16384.000 MB.
DRAM currently available =  100.250 MB.
Maximum ngspice program size =   17.500 MB.
Current ngspice program size =   17.500 MB.

