
Note: No compatibility mode selected!


Circuit: GF180MCU library cell aoi21_1 A1_to_ZN__A2=1,B=0

Doing analysis at TEMP = -12.542166 and TNOM = 27.000000

Using SPARSE 1.3 as Direct Linear Solver

Initial Transient Solution
--------------------------

Node                                   Voltage
----                                   -------
vdd                                    1.76643
a1                                           0
a2                                     1.76643
b                                            0
xu1.net_0                          1.66185e-10
zn                                     1.76643
xu1.net_1                              1.76643
vfix_b#branch                                0
vfix_a2#branch                               0
vin#branch                                   0
vdd#branch                        -3.64978e-12

 Reference value :  7.25484e-08
 Reference value :  1.84653e-07
 Reference value :  2.86789e-07
No. of Data Rows : 68032

  Measurements for Transient Analysis

tphl                =  3.72176e-09 targ=  3.01622e-08 trig=  2.64404e-08
tplh                =  8.54065e-09 targ=  1.09862e-07 trig=  1.01321e-07
i_vdd_avg           =  -1.90073e-06 from=  1.00000e-08 to=  3.30004e-07
power_avg_uw        =  3.35751e+00


Total analysis time (seconds) = 1.04971

Total elapsed time (seconds) = 1.135 

Total DRAM available = 16384.000 MB.
DRAM currently available =   98.141 MB.
Maximum ngspice program size =   19.375 MB.
Current ngspice program size =   19.375 MB.

