
Note: No compatibility mode selected!


Circuit: GF180MCU library cell inv_4 I_to_ZN

Doing analysis at TEMP = 81.179633 and TNOM = 27.000000

Using SPARSE 1.3 as Direct Linear Solver

Initial Transient Solution
--------------------------

Node                                   Voltage
----                                   -------
vdd                                    1.69523
i                                            0
zn                                     1.69523
vin#branch                                   0
vdd#branch                        -1.25992e-10

 Reference value :  5.93982e-08
 Reference value :  1.66684e-07
 Reference value :  2.58028e-07
No. of Data Rows : 68032

  Measurements for Transient Analysis

tphl                =  1.73428e-10 targ=  2.88663e-08 trig=  2.86929e-08
tplh                =  1.73753e-09 targ=  1.09816e-07 trig=  1.08079e-07
i_vdd_avg           =  -6.78755e-07 from=  1.00000e-08 to=  3.30004e-07
power_avg_uw        =  1.15065e+00


Total analysis time (seconds) = 1.2361

Total elapsed time (seconds) = 1.295 

Total DRAM available = 16384.000 MB.
DRAM currently available =  126.062 MB.
Maximum ngspice program size =   16.234 MB.
Current ngspice program size =   16.234 MB.

