
Note: No compatibility mode selected!


Circuit: GF180MCU library cell oai21_1 A1_to_ZN__A2=0,B=1

Doing analysis at TEMP = 101.393570 and TNOM = 27.000000

Using SPARSE 1.3 as Direct Linear Solver

Initial Transient Solution
--------------------------

Node                                   Voltage
----                                   -------
vdd                                    1.63426
a1                                           0
a2                                           0
b                                      1.63426
zn                                     1.63426
xu1.net_0                          7.50019e-08
xu1.net_1                              1.63426
vfix_b#branch                                0
vfix_a2#branch                               0
vin#branch                                   0
vdd#branch                        -1.29174e-11

 Reference value :  1.03920e-07
 Reference value :  2.00559e-07
 Reference value :  2.97635e-07
No. of Data Rows : 68032

  Measurements for Transient Analysis

tphl                =  4.25526e-09 targ=  3.00158e-08 trig=  2.57606e-08
tplh                =  1.06153e-08 targ=  1.09897e-07 trig=  9.92817e-08
i_vdd_avg           =  -1.07954e-06 from=  1.00000e-08 to=  3.30005e-07
power_avg_uw        =  1.76425e+00


Total analysis time (seconds) = 1.07553

Total elapsed time (seconds) = 1.133 

Total DRAM available = 16384.000 MB.
DRAM currently available =  146.828 MB.
Maximum ngspice program size =   14.219 MB.
Current ngspice program size =   14.219 MB.

