
Note: No compatibility mode selected!


Circuit: GF180MCU library cell oai21_4 A1_to_ZN__A2=0,B=1

Doing analysis at TEMP = 41.421920 and TNOM = 27.000000

Using SPARSE 1.3 as Direct Linear Solver

Initial Transient Solution
--------------------------

Node                                   Voltage
----                                   -------
vdd                                    1.63593
a1                                           0
a2                                           0
b                                      1.63593
zn                                     1.63593
xu1.net_0                          2.84263e-08
xu1.net_1_0                            1.63593
xu1.net_1_1                            1.63593
xu1.net_1_2                            1.63593
xu1.net_1_3                            1.63593
vfix_b#branch                                0
vfix_a2#branch                               0
vin#branch                                   0
vdd#branch                        -3.60692e-11

 Reference value :  2.14664e-08
 Reference value :  5.29064e-08
 Reference value :  8.40714e-08
 Reference value :  1.16870e-07
 Reference value :  1.46750e-07
 Reference value :  1.76630e-07
 Reference value :  2.08441e-07
 Reference value :  2.38456e-07
 Reference value :  2.66475e-07
 Reference value :  2.97615e-07
 Reference value :  3.28510e-07
No. of Data Rows : 68032

  Measurements for Transient Analysis

tphl                =  1.18521e-09 targ=  2.78072e-08 trig=  2.66220e-08
tplh                =  2.73572e-09 targ=  1.04602e-07 trig=  1.01866e-07
i_vdd_avg           =  -9.99983e-07 from=  1.00000e-08 to=  3.30000e-07
power_avg_uw        =  1.63590e+00


Total analysis time (seconds) = 3.66521

Total elapsed time (seconds) = 3.739 

Total DRAM available = 16384.000 MB.
DRAM currently available =   86.344 MB.
Maximum ngspice program size =   15.141 MB.
Current ngspice program size =   15.141 MB.

