
Note: No compatibility mode selected!


Circuit: GF180MCU library cell mux2_4 I0_to_Z__I1=0,S=0

Doing analysis at TEMP = 84.847002 and TNOM = 27.000000

Using SPARSE 1.3 as Direct Linear Solver

Initial Transient Solution
--------------------------

Node                                   Voltage
----                                   -------
vdd                                    1.73108
i0                                           0
i1                                           0
s                                            0
xu1.int04                              1.73108
z                                  1.23664e-08
xu1.net_1                            0.0491113
xu1.net_3                               1.2869
xu1.sel1_n                             1.73108
xu1.net_0                              1.73108
xu1.net_2                              1.73108
vfix_s#branch                                0
vfix_i1#branch                               0
vin#branch                                   0
vdd#branch                        -9.00298e-11

 Reference value :  3.35239e-08
 Reference value :  7.53839e-08
 Reference value :  1.16550e-07
 Reference value :  1.57125e-07
 Reference value :  1.95804e-07
 Reference value :  2.32539e-07
 Reference value :  2.73560e-07
 Reference value :  3.13165e-07
No. of Data Rows : 68030

  Measurements for Transient Analysis

tplh                =  1.93461e-09 targ=  2.75853e-08 trig=  2.56507e-08
tphl                =  2.28928e-09 targ=  1.01241e-07 trig=  9.89522e-08
i_vdd_avg           =  -2.03798e-06 from=  1.00000e-08 to=  3.30000e-07
power_avg_uw        =  3.52791e+00


Total analysis time (seconds) = 2.67181

Total elapsed time (seconds) = 2.744 

Total DRAM available = 16384.000 MB.
DRAM currently available =  108.891 MB.
Maximum ngspice program size =   17.031 MB.
Current ngspice program size =   17.031 MB.

