
Note: No compatibility mode selected!


Circuit: GF180MCU library cell mux2_4 I0_to_Z__I1=0,S=0

Doing analysis at TEMP = 24.101292 and TNOM = 27.000000

Using SPARSE 1.3 as Direct Linear Solver

Initial Transient Solution
--------------------------

Node                                   Voltage
----                                   -------
vdd                                    1.63379
i0                                           0
i1                                           0
s                                            0
xu1.int04                              1.63379
z                                  1.58354e-08
xu1.net_1                          0.000389223
xu1.net_3                             0.966702
xu1.sel1_n                             1.63379
xu1.net_0                              1.63379
xu1.net_2                              1.63379
vfix_s#branch                                0
vfix_i1#branch                               0
vin#branch                                   0
vdd#branch                        -1.37187e-11

 Reference value :  2.83997e-08
 Reference value :  7.06947e-08
 Reference value :  1.12102e-07
 Reference value :  1.53867e-07
 Reference value :  1.92695e-07
 Reference value :  2.27330e-07
 Reference value :  2.65657e-07
 Reference value :  3.06432e-07
No. of Data Rows : 68030

  Measurements for Transient Analysis

tplh                =  1.91827e-09 targ=  2.67769e-08 trig=  2.48586e-08
tphl                =  3.65348e-09 targ=  1.00229e-07 trig=  9.65758e-08
i_vdd_avg           =  -2.76078e-07 from=  1.00000e-08 to=  3.30002e-07
power_avg_uw        =  4.51053e-01


Total analysis time (seconds) = 2.70987

Total elapsed time (seconds) = 2.780 

Total DRAM available = 16384.000 MB.
DRAM currently available =   89.750 MB.
Maximum ngspice program size =   16.125 MB.
Current ngspice program size =   16.125 MB.

