
Note: No compatibility mode selected!


Circuit: GF180MCU library cell nand3_1 A1_to_ZN__A2=1,A3=1

Doing analysis at TEMP = 49.452431 and TNOM = 27.000000

Using SPARSE 1.3 as Direct Linear Solver

Initial Transient Solution
--------------------------

Node                                   Voltage
----                                   -------
vdd                                    1.97302
a1                                           0
a2                                     1.97302
a3                                     1.97302
xu1.net_1                           8.2044e-11
xu1.net_0                          1.64088e-10
zn                                     1.97302
vfix_a3#branch                               0
vfix_a2#branch                               0
vin#branch                                   0
vdd#branch                        -1.99404e-12

 Reference value :  7.34521e-08
 Reference value :  1.80482e-07
 Reference value :  2.77227e-07
No. of Data Rows : 68032

  Measurements for Transient Analysis

tphl                =  1.15823e-08 targ=  4.10121e-08 trig=  2.94298e-08
tplh                =  1.39349e-08 targ=  1.24224e-07 trig=  1.10289e-07
i_vdd_avg           =  -2.28726e-06 from=  1.00000e-08 to=  3.30002e-07
power_avg_uw        =  4.51281e+00


Total analysis time (seconds) = 1.06122

Total elapsed time (seconds) = 1.134 

Total DRAM available = 16384.000 MB.
DRAM currently available =   98.000 MB.
Maximum ngspice program size =   17.359 MB.
Current ngspice program size =   17.359 MB.

