
Note: No compatibility mode selected!


Circuit: GF180MCU library cell oai21_1 A1_to_ZN__A2=0,B=1

Doing analysis at TEMP = -11.794339 and TNOM = 27.000000

Using SPARSE 1.3 as Direct Linear Solver

Initial Transient Solution
--------------------------

Node                                   Voltage
----                                   -------
vdd                                    1.93681
a1                                           0
a2                                           0
b                                      1.93681
zn                                     1.93681
xu1.net_0                           3.4718e-13
xu1.net_1                              1.93681
vfix_b#branch                                0
vfix_a2#branch                               0
vin#branch                                   0
vdd#branch                        -3.89368e-12

 Reference value :  7.69292e-08
 Reference value :  1.77516e-07
 Reference value :  2.71939e-07
No. of Data Rows : 68030

  Measurements for Transient Analysis

tphl                =  6.37958e-09 targ=  3.58279e-08 trig=  2.94483e-08
tplh                =  1.35722e-08 targ=  1.23917e-07 trig=  1.10345e-07
i_vdd_avg           =  -1.38457e-06 from=  1.00000e-08 to=  3.30001e-07
power_avg_uw        =  2.68166e+00


Total analysis time (seconds) = 1.10596

Total elapsed time (seconds) = 1.175 

Total DRAM available = 16384.000 MB.
DRAM currently available =  105.797 MB.
Maximum ngspice program size =   16.188 MB.
Current ngspice program size =   16.188 MB.

