
Note: No compatibility mode selected!


Circuit: GF180MCU library cell xor2_1 A1_to_Z__A2=0

Doing analysis at TEMP = 32.210502 and TNOM = 27.000000

Using SPARSE 1.3 as Direct Linear Solver

Initial Transient Solution
--------------------------

Node                                   Voltage
----                                   -------
vdd                                    1.76481
a1                                           0
a2                                           0
xu1.i                                  1.76481
z                                  5.31593e-08
xu1.net_0                          5.75571e-10
xu1.net_2                              1.76481
xu1.net_1                             0.830419
vfix_a2#branch                               0
vin#branch                                   0
vdd#branch                        -9.95522e-12

 Reference value :  4.88911e-08
 Reference value :  1.22370e-07
 Reference value :  1.92706e-07
 Reference value :  2.63700e-07
 Reference value :  3.36250e-07
No. of Data Rows : 68034

  Measurements for Transient Analysis

tplh                =  1.72930e-08 targ=  4.26223e-08 trig=  2.53293e-08
tphl                =  5.44913e-09 targ=  1.03437e-07 trig=  9.79879e-08
i_vdd_avg           =  -1.49420e-06 from=  1.00000e-08 to=  3.30005e-07
power_avg_uw        =  2.63698e+00


Total analysis time (seconds) = 1.55682

Total elapsed time (seconds) = 1.636 

Total DRAM available = 16384.000 MB.
DRAM currently available =  149.156 MB.
Maximum ngspice program size =   16.641 MB.
Current ngspice program size =   16.641 MB.

