
Note: No compatibility mode selected!


Circuit: GF180MCU library cell nand2_1 A1_to_ZN__A2=1

Doing analysis at TEMP = 14.690112 and TNOM = 27.000000

Using SPARSE 1.3 as Direct Linear Solver

Initial Transient Solution
--------------------------

Node                                   Voltage
----                                   -------
vdd                                    1.82318
a1                                           0
a2                                     1.82318
xu1.net_0                          7.40291e-11
zn                                     1.82318
vfix_a2#branch                               0
vin#branch                                   0
vdd#branch                        -1.84691e-12

 Reference value :  1.16923e-07
 Reference value :  2.74288e-07
No. of Data Rows : 68032

  Measurements for Transient Analysis

tphl                =  7.12660e-10 targ=  2.92504e-08 trig=  2.85377e-08
tplh                =  1.97390e-09 targ=  1.09587e-07 trig=  1.07613e-07
i_vdd_avg           =  -8.61090e-08 from=  1.00000e-08 to=  3.30003e-07
power_avg_uw        =  1.56992e-01


Total analysis time (seconds) = 0.703429

Total elapsed time (seconds) = 0.795 

Total DRAM available = 16384.000 MB.
DRAM currently available =  119.094 MB.
Maximum ngspice program size =   18.562 MB.
Current ngspice program size =   18.562 MB.

