
Note: No compatibility mode selected!


Circuit: GF180MCU library cell inv_1 I_to_ZN

Doing analysis at TEMP = 107.630300 and TNOM = 27.000000

Using SPARSE 1.3 as Direct Linear Solver

Initial Transient Solution
--------------------------

Node                                   Voltage
----                                   -------
vdd                                    1.69469
i                                            0
zn                                     1.69469
vin#branch                                   0
vdd#branch                        -1.07531e-10

 Reference value :  1.97987e-07
No. of Data Rows : 68032

  Measurements for Transient Analysis

tphl                =  2.06853e-09 targ=  2.69806e-08 trig=  2.49121e-08
tplh                =  4.26799e-09 targ=  1.01004e-07 trig=  9.67363e-08
i_vdd_avg           =  -1.56052e-06 from=  1.00000e-08 to=  3.30001e-07
power_avg_uw        =  2.64460e+00


Total analysis time (seconds) = 0.408401

Total elapsed time (seconds) = 0.460 

Total DRAM available = 16384.000 MB.
DRAM currently available =  145.141 MB.
Maximum ngspice program size =   14.125 MB.
Current ngspice program size =   14.125 MB.

