
Note: No compatibility mode selected!


Circuit: GF180MCU library cell nor2_1 A1_to_ZN__A2=0

Doing analysis at TEMP = 16.449596 and TNOM = 27.000000

Using SPARSE 1.3 as Direct Linear Solver

Initial Transient Solution
--------------------------

Node                                   Voltage
----                                   -------
vdd                                     1.8456
a1                                           0
a2                                           0
zn                                      1.8456
xu1.net_0                               1.8456
vfix_a2#branch                               0
vin#branch                                   0
vdd#branch                        -4.84691e-12

 Reference value :  1.25962e-07
 Reference value :  2.76190e-07
No. of Data Rows : 68030

  Measurements for Transient Analysis

tphl                =  1.38508e-09 targ=  3.09612e-08 trig=  2.95761e-08
tplh                =  3.99015e-09 targ=  1.14719e-07 trig=  1.10728e-07
i_vdd_avg           =  -4.65194e-07 from=  1.00000e-08 to=  3.30002e-07
power_avg_uw        =  8.58562e-01


Total analysis time (seconds) = 0.673616

Total elapsed time (seconds) = 0.747 

Total DRAM available = 16384.000 MB.
DRAM currently available =  131.391 MB.
Maximum ngspice program size =   17.281 MB.
Current ngspice program size =   17.281 MB.

