
Note: No compatibility mode selected!


Circuit: GF180MCU library cell aoi21_4 A1_to_ZN__A2=1,B=0

Doing analysis at TEMP = 63.342544 and TNOM = 27.000000

Using SPARSE 1.3 as Direct Linear Solver

Initial Transient Solution
--------------------------

Node                                   Voltage
----                                   -------
vdd                                    1.79043
a1                                           0
a2                                     1.79043
b                                            0
xu1.net_0_0                        5.60667e-08
zn                                     1.79043
xu1.net_0_1                        5.60667e-08
xu1.net_0_2                        5.60667e-08
xu1.net_0_3                        5.60667e-08
xu1.net_1                              1.79043
vfix_b#branch                                0
vfix_a2#branch                               0
vin#branch                                   0
vdd#branch                        -1.13835e-10

 Reference value :  2.05514e-08
 Reference value :  5.07895e-08
 Reference value :  8.23845e-08
 Reference value :  1.16586e-07
 Reference value :  1.49781e-07
 Reference value :  1.80886e-07
 Reference value :  2.14579e-07
 Reference value :  2.43974e-07
 Reference value :  2.74841e-07
 Reference value :  3.04286e-07
 Reference value :  3.36901e-07
No. of Data Rows : 68030

  Measurements for Transient Analysis

tphl                =  9.50759e-10 targ=  2.54742e-08 trig=  2.45235e-08
tplh                =  2.21478e-09 targ=  9.77852e-08 trig=  9.55704e-08
i_vdd_avg           =  -1.85977e-06 from=  1.00000e-08 to=  3.30001e-07
power_avg_uw        =  3.32978e+00


Total analysis time (seconds) = 3.43681

Total elapsed time (seconds) = 3.505 

Total DRAM available = 16384.000 MB.
DRAM currently available =  121.625 MB.
Maximum ngspice program size =   16.438 MB.
Current ngspice program size =   16.438 MB.

