
Note: No compatibility mode selected!


Circuit: GF180MCU library cell oai21_1 A1_to_ZN__A2=0,B=1

Doing analysis at TEMP = 78.255002 and TNOM = 27.000000

Using SPARSE 1.3 as Direct Linear Solver

Initial Transient Solution
--------------------------

Node                                   Voltage
----                                   -------
vdd                                    1.88573
a1                                           0
a2                                           0
b                                      1.88573
zn                                     1.88573
xu1.net_0                          1.48124e-09
xu1.net_1                              1.88573
vfix_b#branch                                0
vfix_a2#branch                               0
vin#branch                                   0
vdd#branch                        -3.96419e-12

 Reference value :  7.29244e-08
 Reference value :  1.81106e-07
 Reference value :  2.86156e-07
No. of Data Rows : 68030

  Measurements for Transient Analysis

tphl                =  8.14387e-09 targ=  3.78598e-08 trig=  2.97159e-08
tplh                =  1.84238e-08 targ=  1.29572e-07 trig=  1.11148e-07
i_vdd_avg           =  -1.64806e-06 from=  1.00000e-08 to=  3.30001e-07
power_avg_uw        =  3.10780e+00


Total analysis time (seconds) = 1.06551

Total elapsed time (seconds) = 1.129 

Total DRAM available = 16384.000 MB.
DRAM currently available =  112.969 MB.
Maximum ngspice program size =   15.391 MB.
Current ngspice program size =   15.391 MB.

