
Note: No compatibility mode selected!


Circuit: GF180MCU library cell xor2_1 A1_to_Z__A2=0

Doing analysis at TEMP = 44.209103 and TNOM = 27.000000

Using SPARSE 1.3 as Direct Linear Solver

Initial Transient Solution
--------------------------

Node                                   Voltage
----                                   -------
vdd                                    1.75789
a1                                           0
a2                                           0
xu1.i                                  1.75789
z                                  3.24829e-08
xu1.net_0                          1.55407e-08
xu1.net_2                              1.75789
xu1.net_1                             0.602252
vfix_a2#branch                               0
vin#branch                                   0
vdd#branch                        -3.21726e-11

 Reference value :  5.03565e-08
 Reference value :  1.24921e-07
 Reference value :  1.99757e-07
 Reference value :  2.70742e-07
No. of Data Rows : 68032

  Measurements for Transient Analysis

tplh                =  6.60709e-09 targ=  3.60941e-08 trig=  2.94870e-08
tphl                =  3.93916e-09 targ=  1.14400e-07 trig=  1.10461e-07
i_vdd_avg           =  -1.66351e-06 from=  1.00000e-08 to=  3.30001e-07
power_avg_uw        =  2.92427e+00


Total analysis time (seconds) = 1.47185

Total elapsed time (seconds) = 1.538 

Total DRAM available = 16384.000 MB.
DRAM currently available =   96.609 MB.
Maximum ngspice program size =   15.078 MB.
Current ngspice program size =   15.078 MB.

