
Note: No compatibility mode selected!


Circuit: GF180MCU library cell inv_1 I_to_ZN

Doing analysis at TEMP = 104.763780 and TNOM = 27.000000

Using SPARSE 1.3 as Direct Linear Solver

Initial Transient Solution
--------------------------

Node                                   Voltage
----                                   -------
vdd                                    1.71822
i                                            0
zn                                     1.71822
vin#branch                                   0
vdd#branch                        -2.14779e-12

 Reference value :  1.84203e-07
No. of Data Rows : 68032

  Measurements for Transient Analysis

tphl                =  6.04339e-09 targ=  3.24832e-08 trig=  2.64398e-08
tplh                =  1.35926e-08 targ=  1.14912e-07 trig=  1.01319e-07
i_vdd_avg           =  -1.98100e-06 from=  1.00000e-08 to=  3.30002e-07
power_avg_uw        =  3.40380e+00


Total analysis time (seconds) = 0.44739

Total elapsed time (seconds) = 0.536 

Total DRAM available = 16384.000 MB.
DRAM currently available =  145.141 MB.
Maximum ngspice program size =   18.000 MB.
Current ngspice program size =   18.000 MB.

