
Note: No compatibility mode selected!


Circuit: GF180MCU library cell mux2_1 I0_to_Z__I1=0,S=0

Doing analysis at TEMP = -21.522169 and TNOM = 27.000000

Using SPARSE 1.3 as Direct Linear Solver

Initial Transient Solution
--------------------------

Node                                   Voltage
----                                   -------
vdd                                    1.71616
i0                                           0
i1                                           0
s                                            0
xu1.int04                              1.71616
z                                  9.48248e-09
xu1.net_1                          0.000976082
xu1.net_3                              1.14077
xu1.sel1_n                             1.71616
xu1.net_0                              1.71616
xu1.net_2                              1.71616
vfix_s#branch                                0
vfix_i1#branch                               0
vin#branch                                   0
vdd#branch                        -9.29689e-12

 Reference value :  5.32928e-08
 Reference value :  1.21973e-07
 Reference value :  1.74838e-07
 Reference value :  2.29453e-07
 Reference value :  2.84548e-07
No. of Data Rows : 68032

  Measurements for Transient Analysis

tplh                =  4.15625e-09 targ=  2.85514e-08 trig=  2.43951e-08
tphl                =  2.73969e-09 targ=  9.79251e-08 trig=  9.51854e-08
i_vdd_avg           =  -1.15372e-06 from=  1.00000e-08 to=  3.30003e-07
power_avg_uw        =  1.97996e+00


Total analysis time (seconds) = 1.8658

Total elapsed time (seconds) = 1.932 

Total DRAM available = 16384.000 MB.
DRAM currently available =   88.922 MB.
Maximum ngspice program size =   13.766 MB.
Current ngspice program size =   13.766 MB.

