
Note: No compatibility mode selected!


Circuit: GF180MCU library cell oai21_1 A1_to_ZN__A2=0,B=1

Doing analysis at TEMP = 21.334517 and TNOM = 27.000000

Using SPARSE 1.3 as Direct Linear Solver

Initial Transient Solution
--------------------------

Node                                   Voltage
----                                   -------
vdd                                    1.82045
a1                                           0
a2                                           0
b                                      1.82045
zn                                     1.82045
xu1.net_0                          6.39524e-09
xu1.net_1                              1.82045
vfix_b#branch                                0
vfix_a2#branch                               0
vin#branch                                   0
vdd#branch                        -5.20032e-12

 Reference value :  7.16953e-08
 Reference value :  1.66463e-07
 Reference value :  2.75183e-07
No. of Data Rows : 68034

  Measurements for Transient Analysis

tphl                =  4.03540e-09 targ=  3.13818e-08 trig=  2.73464e-08
tplh                =  8.83906e-09 targ=  1.12878e-07 trig=  1.04039e-07
i_vdd_avg           =  -1.94303e-06 from=  1.00000e-08 to=  3.30003e-07
power_avg_uw        =  3.53719e+00


Total analysis time (seconds) = 1.12918

Total elapsed time (seconds) = 1.197 

Total DRAM available = 16384.000 MB.
DRAM currently available =  132.609 MB.
Maximum ngspice program size =   16.828 MB.
Current ngspice program size =   16.828 MB.

