
Note: No compatibility mode selected!


Circuit: GF180MCU library cell nand2_4 A1_to_ZN__A2=1

Doing analysis at TEMP = 81.946277 and TNOM = 27.000000

Using SPARSE 1.3 as Direct Linear Solver

Initial Transient Solution
--------------------------

Node                                   Voltage
----                                   -------
vdd                                    1.76935
a1                                           0
a2                                     1.76935
xu1.net_0_0                        1.16705e-08
zn                                     1.76935
xu1.net_0_1                        1.16705e-08
xu1.net_0_2                        1.16705e-08
xu1.net_0_3                        1.16705e-08
vfix_a2#branch                               0
vin#branch                                   0
vdd#branch                        -1.40692e-11

 Reference value :  3.20325e-08
 Reference value :  7.72108e-08
 Reference value :  1.26704e-07
 Reference value :  1.78554e-07
 Reference value :  2.28506e-07
 Reference value :  2.81244e-07
 Reference value :  3.31884e-07
No. of Data Rows : 68034

  Measurements for Transient Analysis

tphl                =  2.53050e-09 targ=  3.22996e-08 trig=  2.97691e-08
tplh                =  4.26610e-09 targ=  1.15574e-07 trig=  1.11307e-07
i_vdd_avg           =  -1.43286e-06 from=  1.00000e-08 to=  3.30004e-07
power_avg_uw        =  2.53524e+00


Total analysis time (seconds) = 2.23898

Total elapsed time (seconds) = 2.297 

Total DRAM available = 16384.000 MB.
DRAM currently available =  132.031 MB.
Maximum ngspice program size =   14.953 MB.
Current ngspice program size =   14.953 MB.

