
Note: No compatibility mode selected!


Circuit: GF180MCU library cell aoi21_1 A1_to_ZN__A2=1,B=0

Doing analysis at TEMP = 43.343148 and TNOM = 27.000000

Using SPARSE 1.3 as Direct Linear Solver

Initial Transient Solution
--------------------------

Node                                   Voltage
----                                   -------
vdd                                    1.81301
a1                                           0
a2                                     1.81301
b                                            0
xu1.net_0                          5.23097e-11
zn                                     1.81301
xu1.net_1                              1.81301
vfix_b#branch                                0
vfix_a2#branch                               0
vin#branch                                   0
vdd#branch                        -3.66083e-12

 Reference value :  8.03019e-08
 Reference value :  1.85453e-07
 Reference value :  2.82956e-07
No. of Data Rows : 68032

  Measurements for Transient Analysis

tphl                =  5.72246e-09 targ=  3.19397e-08 trig=  2.62172e-08
tplh                =  1.48270e-08 targ=  1.15479e-07 trig=  1.00652e-07
i_vdd_avg           =  -1.30171e-06 from=  1.00000e-08 to=  3.30001e-07
power_avg_uw        =  2.36002e+00


Total analysis time (seconds) = 1.0433

Total elapsed time (seconds) = 1.130 

Total DRAM available = 16384.000 MB.
DRAM currently available =   98.141 MB.
Maximum ngspice program size =   17.547 MB.
Current ngspice program size =   17.547 MB.

