
Note: No compatibility mode selected!


Circuit: GF180MCU library cell nand2_4 A1_to_ZN__A2=1

Doing analysis at TEMP = 63.277569 and TNOM = 27.000000

Using SPARSE 1.3 as Direct Linear Solver

Initial Transient Solution
--------------------------

Node                                   Voltage
----                                   -------
vdd                                    1.65134
a1                                           0
a2                                     1.65134
xu1.net_0_0                        5.71306e-08
zn                                     1.65134
xu1.net_0_1                        5.71306e-08
xu1.net_0_2                        5.71306e-08
xu1.net_0_3                        5.71306e-08
vfix_a2#branch                               0
vin#branch                                   0
vdd#branch                        -5.07045e-11

 Reference value :  2.97675e-08
 Reference value :  7.64815e-08
 Reference value :  1.27421e-07
 Reference value :  1.77006e-07
 Reference value :  2.27587e-07
 Reference value :  2.76096e-07
 Reference value :  3.27556e-07
No. of Data Rows : 68032

  Measurements for Transient Analysis

tphl                =  1.55847e-09 targ=  3.06105e-08 trig=  2.90520e-08
tplh                =  3.12918e-09 targ=  1.12285e-07 trig=  1.09156e-07
i_vdd_avg           =  -1.32482e-06 from=  1.00000e-08 to=  3.30001e-07
power_avg_uw        =  2.18773e+00


Total analysis time (seconds) = 2.23748

Total elapsed time (seconds) = 2.314 

Total DRAM available = 16384.000 MB.
DRAM currently available =   97.922 MB.
Maximum ngspice program size =   16.078 MB.
Current ngspice program size =   16.078 MB.

