
Note: No compatibility mode selected!


Circuit: GF180MCU library cell nand2_1 A1_to_ZN__A2=1

Doing analysis at TEMP = 48.573048 and TNOM = 27.000000

Using SPARSE 1.3 as Direct Linear Solver

Initial Transient Solution
--------------------------

Node                                   Voltage
----                                   -------
vdd                                    1.62741
a1                                           0
a2                                     1.62741
xu1.net_0                          8.90434e-11
zn                                     1.62741
vfix_a2#branch                               0
vin#branch                                   0
vdd#branch                        -1.64635e-12

 Reference value :  1.08470e-07
 Reference value :  2.66189e-07
No. of Data Rows : 68030

  Measurements for Transient Analysis

tphl                =  2.40379e-09 targ=  2.96545e-08 trig=  2.72507e-08
tplh                =  3.42429e-09 targ=  1.07176e-07 trig=  1.03752e-07
i_vdd_avg           =  -1.48283e-07 from=  1.00000e-08 to=  3.30000e-07
power_avg_uw        =  2.41317e-01


Total analysis time (seconds) = 0.726509

Total elapsed time (seconds) = 0.801 

Total DRAM available = 16384.000 MB.
DRAM currently available =  120.531 MB.
Maximum ngspice program size =   16.672 MB.
Current ngspice program size =   16.672 MB.

