
Note: No compatibility mode selected!


Circuit: GF180MCU library cell nor2_4 A1_to_ZN__A2=0

Doing analysis at TEMP = -10.157569 and TNOM = 27.000000

Using SPARSE 1.3 as Direct Linear Solver

Initial Transient Solution
--------------------------

Node                                   Voltage
----                                   -------
vdd                                    1.85362
a1                                           0
a2                                           0
zn                                     1.85362
xu1.net_0_0                            1.85362
xu1.net_0_1                            1.85362
xu1.net_0_2                            1.85362
xu1.net_0_3                            1.85362
vfix_a2#branch                               0
vin#branch                                   0
vdd#branch                        -1.49205e-11

 Reference value :  3.00325e-08
 Reference value :  7.78671e-08
 Reference value :  1.26217e-07
 Reference value :  1.74957e-07
 Reference value :  2.22537e-07
 Reference value :  2.68332e-07
 Reference value :  3.13907e-07
No. of Data Rows : 68032

  Measurements for Transient Analysis

tphl                =  1.93472e-09 targ=  2.96295e-08 trig=  2.76948e-08
tplh                =  3.95659e-09 targ=  1.09041e-07 trig=  1.05084e-07
i_vdd_avg           =  -1.48562e-06 from=  1.00000e-08 to=  3.30002e-07
power_avg_uw        =  2.75376e+00


Total analysis time (seconds) = 2.34831

Total elapsed time (seconds) = 2.414 

Total DRAM available = 16384.000 MB.
DRAM currently available =  135.672 MB.
Maximum ngspice program size =   14.828 MB.
Current ngspice program size =   14.828 MB.

