
Note: No compatibility mode selected!


Circuit: GF180MCU library cell xor2_1 A1_to_Z__A2=0

Doing analysis at TEMP = 107.522600 and TNOM = 27.000000

Using SPARSE 1.3 as Direct Linear Solver

Initial Transient Solution
--------------------------

Node                                   Voltage
----                                   -------
vdd                                    1.95943
a1                                           0
a2                                           0
xu1.i                                   1.9594
z                                  4.90566e-08
xu1.net_0                          2.44933e-08
xu1.net_2                              1.95942
xu1.net_1                             0.555785
vfix_a2#branch                               0
vin#branch                                   0
vdd#branch                        -5.35402e-10

 Reference value :  4.35098e-08
 Reference value :  1.09187e-07
 Reference value :  1.81212e-07
 Reference value :  2.56185e-07
 Reference value :  3.27907e-07
No. of Data Rows : 68030

  Measurements for Transient Analysis

tplh                =  2.05612e-09 targ=  2.80623e-08 trig=  2.60062e-08
tphl                =  1.76686e-09 targ=  1.01785e-07 trig=  1.00018e-07
i_vdd_avg           =  -6.48283e-07 from=  1.00000e-08 to=  3.30002e-07
power_avg_uw        =  1.27027e+00


Total analysis time (seconds) = 1.5974

Total elapsed time (seconds) = 1.671 

Total DRAM available = 16384.000 MB.
DRAM currently available =  159.375 MB.
Maximum ngspice program size =   17.781 MB.
Current ngspice program size =   17.781 MB.

