
Note: No compatibility mode selected!


Circuit: GF180MCU library cell xor2_4 A1_to_Z__A2=0

Doing analysis at TEMP = 80.131330 and TNOM = 27.000000

Using SPARSE 1.3 as Direct Linear Solver

Initial Transient Solution
--------------------------

Node                                   Voltage
----                                   -------
vdd                                    1.79135
a1                                           0
a2                                           0
xu1.net_2                            0.0313668
xu1.i                                  1.79135
xu1.net_0                          1.74977e-09
xu1.z_neg                              1.79135
z                                  1.73989e-08
xu1.net_1                              1.79135
vfix_a2#branch                               0
vin#branch                                   0
vdd#branch                        -1.33104e-11

 Reference value :  2.62425e-08
 Reference value :  6.75712e-08
 Reference value :  1.09006e-07
 Reference value :  1.53565e-07
 Reference value :  1.96911e-07
 Reference value :  2.37056e-07
 Reference value :  2.79835e-07
 Reference value :  3.22420e-07
No. of Data Rows : 68034

  Measurements for Transient Analysis

tplh                =  5.88428e-09 targ=  3.55461e-08 trig=  2.96619e-08
tphl                =  7.14050e-09 targ=  1.18126e-07 trig=  1.10986e-07
i_vdd_avg           =  -2.30161e-06 from=  1.00000e-08 to=  3.30005e-07
power_avg_uw        =  4.12298e+00


Total analysis time (seconds) = 2.62393

Total elapsed time (seconds) = 2.708 

Total DRAM available = 16384.000 MB.
DRAM currently available =   67.094 MB.
Maximum ngspice program size =   18.250 MB.
Current ngspice program size =   18.250 MB.

