
Note: No compatibility mode selected!


Circuit: GF180MCU library cell nor2_4 A1_to_ZN__A2=0

Doing analysis at TEMP = 47.640671 and TNOM = 27.000000

Using SPARSE 1.3 as Direct Linear Solver

Initial Transient Solution
--------------------------

Node                                   Voltage
----                                   -------
vdd                                     1.6877
a1                                           0
a2                                           0
zn                                      1.6877
xu1.net_0_0                             1.6877
xu1.net_0_1                             1.6877
xu1.net_0_2                             1.6877
xu1.net_0_3                             1.6877
vfix_a2#branch                               0
vin#branch                                   0
vdd#branch                        -1.36571e-11

 Reference value :  2.99125e-08
 Reference value :  7.75734e-08
 Reference value :  1.30374e-07
 Reference value :  1.81784e-07
 Reference value :  2.32028e-07
 Reference value :  2.78569e-07
 Reference value :  3.22439e-07
No. of Data Rows : 68032

  Measurements for Transient Analysis

tphl                =  3.07520e-09 targ=  3.17631e-08 trig=  2.86879e-08
tplh                =  5.98437e-09 targ=  1.14048e-07 trig=  1.08064e-07
i_vdd_avg           =  -9.02431e-07 from=  1.00000e-08 to=  3.30004e-07
power_avg_uw        =  1.52303e+00


Total analysis time (seconds) = 2.27867

Total elapsed time (seconds) = 2.346 

Total DRAM available = 16384.000 MB.
DRAM currently available =  135.672 MB.
Maximum ngspice program size =   16.703 MB.
Current ngspice program size =   16.703 MB.

