
Note: No compatibility mode selected!


Circuit: GF180MCU library cell xor2_4 A1_to_Z__A2=0

Doing analysis at TEMP = 113.592220 and TNOM = 27.000000

Using SPARSE 1.3 as Direct Linear Solver

Initial Transient Solution
--------------------------

Node                                   Voltage
----                                   -------
vdd                                    1.86426
a1                                           0
a2                                           0
xu1.net_2                            0.0551751
xu1.i                                  1.86426
xu1.net_0                          1.52143e-06
xu1.z_neg                              1.86425
z                                  2.74149e-08
xu1.net_1                              1.86426
vfix_a2#branch                               0
vin#branch                                   0
vdd#branch                        -3.89366e-10

 Reference value :  2.57525e-08
 Reference value :  6.65588e-08
 Reference value :  1.07320e-07
 Reference value :  1.49015e-07
 Reference value :  1.91369e-07
 Reference value :  2.32559e-07
 Reference value :  2.73870e-07
 Reference value :  3.19515e-07
No. of Data Rows : 68030

  Measurements for Transient Analysis

tplh                =  1.52622e-09 targ=  2.82869e-08 trig=  2.67606e-08
tphl                =  2.54311e-09 targ=  1.04825e-07 trig=  1.02282e-07
i_vdd_avg           =  -1.67016e-06 from=  1.00000e-08 to=  3.30000e-07
power_avg_uw        =  3.11361e+00


Total analysis time (seconds) = 2.6552

Total elapsed time (seconds) = 2.737 

Total DRAM available = 16384.000 MB.
DRAM currently available =  102.312 MB.
Maximum ngspice program size =   18.703 MB.
Current ngspice program size =   18.703 MB.

