
Note: No compatibility mode selected!


Circuit: GF180MCU library cell nor2_1 A1_to_ZN__A2=0

Doing analysis at TEMP = 67.770640 and TNOM = 27.000000

Using SPARSE 1.3 as Direct Linear Solver

Initial Transient Solution
--------------------------

Node                                   Voltage
----                                   -------
vdd                                    1.87336
a1                                           0
a2                                           0
zn                                     1.87336
xu1.net_0                              1.87336
vfix_a2#branch                               0
vin#branch                                   0
vdd#branch                        -3.53391e-11

 Reference value :  1.06073e-07
 Reference value :  2.46443e-07
No. of Data Rows : 68032

  Measurements for Transient Analysis

tphl                =  1.08508e-09 targ=  3.02804e-08 trig=  2.91953e-08
tplh                =  3.49401e-09 targ=  1.13080e-07 trig=  1.09586e-07
i_vdd_avg           =  -4.22224e-07 from=  1.00000e-08 to=  3.30004e-07
power_avg_uw        =  7.90975e-01


Total analysis time (seconds) = 0.744276

Total elapsed time (seconds) = 0.838 

Total DRAM available = 16384.000 MB.
DRAM currently available =   93.203 MB.
Maximum ngspice program size =   18.234 MB.
Current ngspice program size =   18.234 MB.

