
Note: No compatibility mode selected!


Circuit: GF180MCU library cell nand2_4 A1_to_ZN__A2=1

Doing analysis at TEMP = 120.842210 and TNOM = 27.000000

Using SPARSE 1.3 as Direct Linear Solver

Initial Transient Solution
--------------------------

Node                                   Voltage
----                                   -------
vdd                                    1.64653
a1                                           0
a2                                     1.64653
xu1.net_0_0                        1.08268e-06
zn                                     1.64652
xu1.net_0_1                        1.08268e-06
xu1.net_0_2                        1.08268e-06
xu1.net_0_3                        1.08268e-06
vfix_a2#branch                               0
vin#branch                                   0
vdd#branch                        -7.36518e-10

 Reference value :  2.98175e-08
 Reference value :  7.83387e-08
 Reference value :  1.29360e-07
 Reference value :  1.82545e-07
 Reference value :  2.31289e-07
 Reference value :  2.79825e-07
 Reference value :  3.26845e-07
No. of Data Rows : 68032

  Measurements for Transient Analysis

tphl                =  3.15573e-10 targ=  2.81987e-08 trig=  2.78831e-08
tplh                =  1.39570e-09 targ=  1.07045e-07 trig=  1.05649e-07
i_vdd_avg           =  -5.12597e-07 from=  1.00000e-08 to=  3.30005e-07
power_avg_uw        =  8.44005e-01


Total analysis time (seconds) = 2.26641

Total elapsed time (seconds) = 2.331 

Total DRAM available = 16384.000 MB.
DRAM currently available =   94.203 MB.
Maximum ngspice program size =   16.406 MB.
Current ngspice program size =   16.406 MB.

