
Note: No compatibility mode selected!


Circuit: GF180MCU library cell xor2_1 A1_to_Z__A2=0

Doing analysis at TEMP = 49.298694 and TNOM = 27.000000

Using SPARSE 1.3 as Direct Linear Solver

Initial Transient Solution
--------------------------

Node                                   Voltage
----                                   -------
vdd                                    1.86746
a1                                           0
a2                                           0
xu1.i                                  1.86746
z                                  5.54522e-08
xu1.net_0                          2.37481e-09
xu1.net_2                              1.86746
xu1.net_1                             0.827901
vfix_a2#branch                               0
vin#branch                                   0
vdd#branch                        -1.08075e-11

 Reference value :  5.91961e-08
 Reference value :  1.28995e-07
 Reference value :  2.09986e-07
 Reference value :  2.83345e-07
No. of Data Rows : 68034

  Measurements for Transient Analysis

tplh                =  1.42035e-08 targ=  4.23853e-08 trig=  2.81818e-08
tphl                =  6.02511e-09 targ=  1.12570e-07 trig=  1.06545e-07
i_vdd_avg           =  -1.45659e-06 from=  1.00000e-08 to=  3.30005e-07
power_avg_uw        =  2.72013e+00


Total analysis time (seconds) = 1.35542

Total elapsed time (seconds) = 1.415 

Total DRAM available = 16384.000 MB.
DRAM currently available =  159.375 MB.
Maximum ngspice program size =   15.438 MB.
Current ngspice program size =   15.438 MB.

