
Note: No compatibility mode selected!


Circuit: GF180MCU library cell aoi21_4 A1_to_ZN__A2=1,B=0

Doing analysis at TEMP = -19.848586 and TNOM = 27.000000

Using SPARSE 1.3 as Direct Linear Solver

Initial Transient Solution
--------------------------

Node                                   Voltage
----                                   -------
vdd                                     1.7106
a1                                           0
a2                                      1.7106
b                                            0
xu1.net_0_0                        6.86331e-14
zn                                      1.7106
xu1.net_0_1                        6.79126e-14
xu1.net_0_2                        6.86331e-14
xu1.net_0_3                        6.79126e-14
xu1.net_1                               1.7106
vfix_b#branch                                0
vfix_a2#branch                               0
vin#branch                                   0
vdd#branch                        -1.37649e-11

 Reference value :  2.35514e-08
 Reference value :  5.49956e-08
 Reference value :  8.57456e-08
 Reference value :  1.17404e-07
 Reference value :  1.48849e-07
 Reference value :  1.81419e-07
 Reference value :  2.12776e-07
 Reference value :  2.45551e-07
 Reference value :  2.74771e-07
 Reference value :  3.06844e-07
 Reference value :  3.39164e-07
No. of Data Rows : 68034

  Measurements for Transient Analysis

tphl                =  4.84745e-09 targ=  3.46140e-08 trig=  2.97665e-08
tplh                =  9.30874e-09 targ=  1.20608e-07 trig=  1.11300e-07
i_vdd_avg           =  -1.76512e-06 from=  1.00000e-08 to=  3.30004e-07
power_avg_uw        =  3.01942e+00


Total analysis time (seconds) = 3.44144

Total elapsed time (seconds) = 3.504 

Total DRAM available = 16384.000 MB.
DRAM currently available =  119.766 MB.
Maximum ngspice program size =   16.000 MB.
Current ngspice program size =   16.000 MB.

