
Note: No compatibility mode selected!


Circuit: GF180MCU library cell nor2_1 A1_to_ZN__A2=0

Doing analysis at TEMP = 107.793740 and TNOM = 27.000000

Using SPARSE 1.3 as Direct Linear Solver

Initial Transient Solution
--------------------------

Node                                   Voltage
----                                   -------
vdd                                    1.65636
a1                                           0
a2                                           0
zn                                     1.65636
xu1.net_0                              1.65636
vfix_a2#branch                               0
vin#branch                                   0
vdd#branch                        -4.33579e-12

 Reference value :  1.01910e-07
 Reference value :  2.54964e-07
No. of Data Rows : 68030

  Measurements for Transient Analysis

tphl                =  4.12601e-09 targ=  2.91117e-08 trig=  2.49857e-08
tplh                =  1.48029e-08 targ=  1.11760e-07 trig=  9.69571e-08
i_vdd_avg           =  -9.53854e-07 from=  1.00000e-08 to=  3.30000e-07
power_avg_uw        =  1.57992e+00


Total analysis time (seconds) = 0.759906

Total elapsed time (seconds) = 0.838 

Total DRAM available = 16384.000 MB.
DRAM currently available =  102.938 MB.
Maximum ngspice program size =   18.344 MB.
Current ngspice program size =   18.344 MB.

