
Note: No compatibility mode selected!


Circuit: GF180MCU library cell aoi21_1 A1_to_ZN__A2=1,B=0

Doing analysis at TEMP = 40.246052 and TNOM = 27.000000

Using SPARSE 1.3 as Direct Linear Solver

Initial Transient Solution
--------------------------

Node                                   Voltage
----                                   -------
vdd                                    1.70682
a1                                           0
a2                                     1.70682
b                                            0
xu1.net_0                          4.21732e-11
zn                                     1.70682
xu1.net_1                              1.70682
vfix_b#branch                                0
vfix_a2#branch                               0
vin#branch                                   0
vdd#branch                        -3.44464e-12

 Reference value :  6.81066e-08
 Reference value :  1.76796e-07
 Reference value :  2.81191e-07
No. of Data Rows : 68032

  Measurements for Transient Analysis

tphl                =  1.06653e-08 targ=  3.90224e-08 trig=  2.83570e-08
tplh                =  2.85043e-08 targ=  1.35575e-07 trig=  1.07071e-07
i_vdd_avg           =  -1.91833e-06 from=  1.00000e-08 to=  3.30001e-07
power_avg_uw        =  3.27424e+00


Total analysis time (seconds) = 1.05428

Total elapsed time (seconds) = 1.133 

Total DRAM available = 16384.000 MB.
DRAM currently available =  140.844 MB.
Maximum ngspice program size =   18.016 MB.
Current ngspice program size =   18.016 MB.

