
Note: No compatibility mode selected!


Circuit: GF180MCU library cell nor2_1 A1_to_ZN__A2=0

Doing analysis at TEMP = 46.789130 and TNOM = 27.000000

Using SPARSE 1.3 as Direct Linear Solver

Initial Transient Solution
--------------------------

Node                                   Voltage
----                                   -------
vdd                                    1.66237
a1                                           0
a2                                           0
zn                                     1.66237
xu1.net_0                              1.66237
vfix_a2#branch                               0
vin#branch                                   0
vdd#branch                         -3.3622e-12

 Reference value :  1.11400e-07
 Reference value :  2.59566e-07
No. of Data Rows : 68034

  Measurements for Transient Analysis

tphl                =  7.43072e-09 targ=  3.32501e-08 trig=  2.58194e-08
tplh                =  2.75999e-08 targ=  1.27058e-07 trig=  9.94581e-08
i_vdd_avg           =  -1.79288e-06 from=  1.00000e-08 to=  3.30005e-07
power_avg_uw        =  2.98042e+00


Total analysis time (seconds) = 0.716784

Total elapsed time (seconds) = 0.782 

Total DRAM available = 16384.000 MB.
DRAM currently available =  131.391 MB.
Maximum ngspice program size =   17.891 MB.
Current ngspice program size =   17.891 MB.

