
Note: No compatibility mode selected!


Circuit: GF180MCU library cell inv_1 I_to_ZN

Doing analysis at TEMP = 42.583906 and TNOM = 27.000000

Using SPARSE 1.3 as Direct Linear Solver

Initial Transient Solution
--------------------------

Node                                   Voltage
----                                   -------
vdd                                    1.82534
i                                            0
zn                                     1.82534
vin#branch                                   0
vdd#branch                        -1.84131e-12

 Reference value :  1.96984e-07
No. of Data Rows : 68030

  Measurements for Transient Analysis

tphl                =  4.54995e-09 targ=  3.28856e-08 trig=  2.83357e-08
tplh                =  8.24837e-09 targ=  1.15255e-07 trig=  1.07007e-07
i_vdd_avg           =  -1.14485e-06 from=  1.00000e-08 to=  3.30000e-07
power_avg_uw        =  2.08975e+00


Total analysis time (seconds) = 0.437964

Total elapsed time (seconds) = 0.499 

Total DRAM available = 16384.000 MB.
DRAM currently available =  109.594 MB.
Maximum ngspice program size =   15.734 MB.
Current ngspice program size =   15.734 MB.

