
Note: No compatibility mode selected!


Circuit: GF180MCU library cell nand2_4 A1_to_ZN__A2=1

Doing analysis at TEMP = 47.589347 and TNOM = 27.000000

Using SPARSE 1.3 as Direct Linear Solver

Initial Transient Solution
--------------------------

Node                                   Voltage
----                                   -------
vdd                                    1.82678
a1                                           0
a2                                     1.82678
xu1.net_0_0                        1.13203e-09
zn                                     1.82678
xu1.net_0_1                        1.13203e-09
xu1.net_0_2                        1.13203e-09
xu1.net_0_3                        1.13203e-09
vfix_a2#branch                               0
vin#branch                                   0
vdd#branch                        -8.11425e-12

 Reference value :  3.07825e-08
 Reference value :  7.61419e-08
 Reference value :  1.24576e-07
 Reference value :  1.73481e-07
 Reference value :  2.23732e-07
 Reference value :  2.74336e-07
 Reference value :  3.22691e-07
No. of Data Rows : 68032

  Measurements for Transient Analysis

tphl                =  1.45748e-09 targ=  2.92597e-08 trig=  2.78022e-08
tplh                =  2.59806e-09 targ=  1.08005e-07 trig=  1.05407e-07
i_vdd_avg           =  -8.63885e-07 from=  1.00000e-08 to=  3.30001e-07
power_avg_uw        =  1.57813e+00


Total analysis time (seconds) = 2.34827

Total elapsed time (seconds) = 2.418 

Total DRAM available = 16384.000 MB.
DRAM currently available =   97.922 MB.
Maximum ngspice program size =   17.500 MB.
Current ngspice program size =   17.500 MB.

