
Note: No compatibility mode selected!


Circuit: GF180MCU library cell nand3_4 A1_to_ZN__A2=1,A3=1

Doing analysis at TEMP = 32.874459 and TNOM = 27.000000

Using SPARSE 1.3 as Direct Linear Solver

Initial Transient Solution
--------------------------

Node                                   Voltage
----                                   -------
vdd                                    1.71887
a1                                           0
a2                                     1.71887
a3                                     1.71887
xu1.net_1_3                         3.6987e-10
xu1.net_0                           7.3974e-10
xu1.net_1_2                         3.6987e-10
xu1.net_1_1                         3.6987e-10
xu1.net_1_0                         3.6987e-10
xu1.net_0_0                         7.3974e-10
zn                                     1.71887
vfix_a3#branch                               0
vfix_a2#branch                               0
vin#branch                                   0
vdd#branch                        -7.15623e-12

 Reference value :  2.22064e-08
 Reference value :  5.17947e-08
 Reference value :  8.25997e-08
 Reference value :  1.12897e-07
 Reference value :  1.44317e-07
 Reference value :  1.74927e-07
 Reference value :  2.05040e-07
 Reference value :  2.33130e-07
 Reference value :  2.62142e-07
 Reference value :  2.90637e-07
 Reference value :  3.22102e-07
No. of Data Rows : 68030

  Measurements for Transient Analysis

tphl                =  8.56165e-10 targ=  2.50498e-08 trig=  2.41936e-08
tplh                =  1.01905e-09 targ=  9.55998e-08 trig=  9.45808e-08
i_vdd_avg           =  -8.21837e-07 from=  1.00000e-08 to=  3.30002e-07
power_avg_uw        =  1.41263e+00


Total analysis time (seconds) = 3.85912

Total elapsed time (seconds) = 3.951 

Total DRAM available = 16384.000 MB.
DRAM currently available =   92.500 MB.
Maximum ngspice program size =   16.250 MB.
Current ngspice program size =   16.250 MB.

