
Note: No compatibility mode selected!


Circuit: GF180MCU library cell aoi21_1 A1_to_ZN__A2=1,B=0

Doing analysis at TEMP = 106.618840 and TNOM = 27.000000

Using SPARSE 1.3 as Direct Linear Solver

Initial Transient Solution
--------------------------

Node                                   Voltage
----                                   -------
vdd                                    1.85162
a1                                           0
a2                                     1.85162
b                                            0
xu1.net_0                          4.63291e-09
zn                                     1.85162
xu1.net_1                              1.85162
vfix_b#branch                                0
vfix_a2#branch                               0
vin#branch                                   0
vdd#branch                        -4.79493e-12

 Reference value :  6.76867e-08
 Reference value :  1.78171e-07
 Reference value :  2.84031e-07
No. of Data Rows : 68032

  Measurements for Transient Analysis

tphl                =  7.14437e-09 targ=  3.15415e-08 trig=  2.43971e-08
tplh                =  1.96116e-08 targ=  1.14803e-07 trig=  9.51913e-08
i_vdd_avg           =  -1.91516e-06 from=  1.00000e-08 to=  3.30001e-07
power_avg_uw        =  3.54614e+00


Total analysis time (seconds) = 1.03623

Total elapsed time (seconds) = 1.114 

Total DRAM available = 16384.000 MB.
DRAM currently available =  113.406 MB.
Maximum ngspice program size =   19.125 MB.
Current ngspice program size =   19.125 MB.

