
Note: No compatibility mode selected!


Circuit: GF180MCU library cell nor2_4 A1_to_ZN__A2=0

Doing analysis at TEMP = 87.394301 and TNOM = 27.000000

Using SPARSE 1.3 as Direct Linear Solver

Initial Transient Solution
--------------------------

Node                                   Voltage
----                                   -------
vdd                                    1.90535
a1                                           0
a2                                           0
zn                                     1.90534
xu1.net_0_0                            1.90535
xu1.net_0_1                            1.90535
xu1.net_0_2                            1.90535
xu1.net_0_3                            1.90535
vfix_a2#branch                               0
vin#branch                                   0
vdd#branch                          -3.689e-10

 Reference value :  3.20410e-08
 Reference value :  7.97010e-08
 Reference value :  1.30144e-07
 Reference value :  1.79684e-07
 Reference value :  2.29766e-07
 Reference value :  2.76819e-07
 Reference value :  3.27514e-07
No. of Data Rows : 68034

  Measurements for Transient Analysis

tphl                =  5.45910e-10 targ=  2.51601e-08 trig=  2.46142e-08
tplh                =  1.23444e-09 targ=  9.70771e-08 trig=  9.58427e-08
i_vdd_avg           =  -1.07759e-06 from=  1.00000e-08 to=  3.30004e-07
power_avg_uw        =  2.05319e+00


Total analysis time (seconds) = 2.27636

Total elapsed time (seconds) = 2.367 

Total DRAM available = 16384.000 MB.
DRAM currently available =   99.078 MB.
Maximum ngspice program size =   18.656 MB.
Current ngspice program size =   18.656 MB.

