
Note: No compatibility mode selected!


Circuit: GF180MCU library cell nand3_1 A1_to_ZN__A2=1,A3=1

Doing analysis at TEMP = 104.603770 and TNOM = 27.000000

Using SPARSE 1.3 as Direct Linear Solver

Initial Transient Solution
--------------------------

Node                                   Voltage
----                                   -------
vdd                                    1.64584
a1                                           0
a2                                     1.64584
a3                                     1.64584
xu1.net_1                          4.44936e-08
xu1.net_0                           8.8987e-08
zn                                     1.64584
vfix_a3#branch                               0
vfix_a2#branch                               0
vin#branch                                   0
vdd#branch                        -7.38066e-12

 Reference value :  8.78600e-08
 Reference value :  1.95710e-07
 Reference value :  2.91807e-07
No. of Data Rows : 68030

  Measurements for Transient Analysis

tphl                =  4.89203e-09 targ=  2.97158e-08 trig=  2.48237e-08
tplh                =  5.53502e-09 targ=  1.02006e-07 trig=  9.64712e-08
i_vdd_avg           =  -9.78510e-07 from=  1.00000e-08 to=  3.30002e-07
power_avg_uw        =  1.61047e+00


Total analysis time (seconds) = 1.04479

Total elapsed time (seconds) = 1.117 

Total DRAM available = 16384.000 MB.
DRAM currently available =  108.312 MB.
Maximum ngspice program size =   16.656 MB.
Current ngspice program size =   16.656 MB.

