
Note: No compatibility mode selected!


Circuit: GF180MCU library cell xor2_1 A1_to_Z__A2=0

Doing analysis at TEMP = 38.275835 and TNOM = 27.000000

Using SPARSE 1.3 as Direct Linear Solver

Initial Transient Solution
--------------------------

Node                                   Voltage
----                                   -------
vdd                                    1.82817
a1                                           0
a2                                           0
xu1.i                                  1.82817
z                                  3.17462e-08
xu1.net_0                          1.48759e-08
xu1.net_2                              1.82817
xu1.net_1                             0.629529
vfix_a2#branch                               0
vin#branch                                   0
vdd#branch                        -2.66547e-11

 Reference value :  4.81045e-08
 Reference value :  1.17752e-07
 Reference value :  1.90050e-07
 Reference value :  2.60562e-07
 Reference value :  3.38247e-07
No. of Data Rows : 68030

  Measurements for Transient Analysis

tplh                =  8.27039e-09 targ=  3.28689e-08 trig=  2.45985e-08
tphl                =  2.59273e-09 targ=  9.83883e-08 trig=  9.57956e-08
i_vdd_avg           =  -2.15085e-06 from=  1.00000e-08 to=  3.30002e-07
power_avg_uw        =  3.93213e+00


Total analysis time (seconds) = 1.50912

Total elapsed time (seconds) = 1.573 

Total DRAM available = 16384.000 MB.
DRAM currently available =  130.047 MB.
Maximum ngspice program size =   17.484 MB.
Current ngspice program size =   17.484 MB.

