
Note: No compatibility mode selected!


Circuit: GF180MCU library cell nand2_1 A1_to_ZN__A2=1

Doing analysis at TEMP = 65.206606 and TNOM = 27.000000

Using SPARSE 1.3 as Direct Linear Solver

Initial Transient Solution
--------------------------

Node                                   Voltage
----                                   -------
vdd                                    1.67148
a1                                           0
a2                                     1.67148
xu1.net_0                          4.11643e-09
zn                                     1.67148
vfix_a2#branch                               0
vin#branch                                   0
vdd#branch                        -2.27431e-12

 Reference value :  1.17867e-07
 Reference value :  2.93907e-07
No. of Data Rows : 68032

  Measurements for Transient Analysis

tphl                =  2.32857e-09 targ=  3.00310e-08 trig=  2.77024e-08
tplh                =  3.49738e-09 targ=  1.08605e-07 trig=  1.05107e-07
i_vdd_avg           =  -3.10389e-07 from=  1.00000e-08 to=  3.30002e-07
power_avg_uw        =  5.18810e-01


Total analysis time (seconds) = 0.656844

Total elapsed time (seconds) = 0.738 

Total DRAM available = 16384.000 MB.
DRAM currently available =  120.531 MB.
Maximum ngspice program size =   17.922 MB.
Current ngspice program size =   17.922 MB.

