
Note: No compatibility mode selected!


Circuit: GF180MCU library cell inv_1 I_to_ZN

Doing analysis at TEMP = 86.643531 and TNOM = 27.000000

Using SPARSE 1.3 as Direct Linear Solver

Initial Transient Solution
--------------------------

Node                                   Voltage
----                                   -------
vdd                                    1.81165
i                                            0
zn                                     1.81165
vin#branch                                   0
vdd#branch                        -4.14564e-12

 Reference value :  1.72574e-07
No. of Data Rows : 68032

  Measurements for Transient Analysis

tphl                =  5.14660e-09 targ=  3.37944e-08 trig=  2.86478e-08
tplh                =  9.51675e-09 targ=  1.17460e-07 trig=  1.07943e-07
i_vdd_avg           =  -2.25002e-06 from=  1.00000e-08 to=  3.30004e-07
power_avg_uw        =  4.07626e+00


Total analysis time (seconds) = 0.56197

Total elapsed time (seconds) = 0.673 

Total DRAM available = 16384.000 MB.
DRAM currently available =   74.906 MB.
Maximum ngspice program size =   18.609 MB.
Current ngspice program size =   18.609 MB.

