
Note: No compatibility mode selected!


Circuit: GF180MCU library cell oai21_4 A1_to_ZN__A2=0,B=1

Doing analysis at TEMP = -5.540431 and TNOM = 27.000000

Using SPARSE 1.3 as Direct Linear Solver

Initial Transient Solution
--------------------------

Node                                   Voltage
----                                   -------
vdd                                    1.95211
a1                                           0
a2                                           0
b                                      1.95211
zn                                     1.95211
xu1.net_0                           7.3631e-13
xu1.net_1_0                            1.95211
xu1.net_1_1                            1.95211
xu1.net_1_2                            1.95211
xu1.net_1_3                            1.95211
vfix_b#branch                                0
vfix_a2#branch                               0
vin#branch                                   0
vdd#branch                        -1.56973e-11

 Reference value :  2.94516e-08
 Reference value :  6.08066e-08
 Reference value :  9.36616e-08
 Reference value :  1.25851e-07
 Reference value :  1.55361e-07
 Reference value :  1.86792e-07
 Reference value :  2.18127e-07
 Reference value :  2.50172e-07
 Reference value :  2.77001e-07
 Reference value :  3.07991e-07
No. of Data Rows : 68032

  Measurements for Transient Analysis

tphl                =  1.57973e-09 targ=  2.64043e-08 trig=  2.48245e-08
tplh                =  4.15655e-09 targ=  1.00630e-07 trig=  9.64736e-08
i_vdd_avg           =  -1.77137e-06 from=  1.00000e-08 to=  3.30001e-07
power_avg_uw        =  3.45792e+00


Total analysis time (seconds) = 3.49943

Total elapsed time (seconds) = 3.564 

Total DRAM available = 16384.000 MB.
DRAM currently available =   74.703 MB.
Maximum ngspice program size =   15.047 MB.
Current ngspice program size =   15.047 MB.

