
Note: No compatibility mode selected!


Circuit: GF180MCU library cell xor2_1 A1_to_Z__A2=0

Doing analysis at TEMP = -33.378321 and TNOM = 27.000000

Using SPARSE 1.3 as Direct Linear Solver

Initial Transient Solution
--------------------------

Node                                   Voltage
----                                   -------
vdd                                    1.68827
a1                                           0
a2                                           0
xu1.i                                  1.68827
z                                  2.43476e-08
xu1.net_0                          3.08053e-10
xu1.net_2                              1.68827
xu1.net_1                             0.724039
vfix_a2#branch                               0
vin#branch                                   0
vdd#branch                        -9.75726e-12

 Reference value :  5.17909e-08
 Reference value :  1.26599e-07
 Reference value :  1.94726e-07
 Reference value :  2.67531e-07
No. of Data Rows : 68034

  Measurements for Transient Analysis

tplh                =  7.38057e-09 targ=  3.49473e-08 trig=  2.75667e-08
tphl                =  3.42335e-09 targ=  1.08123e-07 trig=  1.04700e-07
i_vdd_avg           =  -1.73594e-06 from=  1.00000e-08 to=  3.30004e-07
power_avg_uw        =  2.93074e+00


Total analysis time (seconds) = 1.48538

Total elapsed time (seconds) = 1.546 

Total DRAM available = 16384.000 MB.
DRAM currently available =  100.250 MB.
Maximum ngspice program size =   12.859 MB.
Current ngspice program size =   12.703 MB.

