
Note: No compatibility mode selected!


Circuit: GF180MCU library cell xor2_4 A1_to_Z__A2=0

Doing analysis at TEMP = 119.797730 and TNOM = 27.000000

Using SPARSE 1.3 as Direct Linear Solver

Initial Transient Solution
--------------------------

Node                                   Voltage
----                                   -------
vdd                                    1.81558
a1                                           0
a2                                           0
xu1.net_2                            0.0419217
xu1.i                                  1.81558
xu1.net_0                           2.0051e-08
xu1.z_neg                              1.81558
z                                  1.92546e-08
xu1.net_1                              1.81558
vfix_a2#branch                               0
vin#branch                                   0
vdd#branch                        -1.66236e-11

 Reference value :  3.21925e-08
 Reference value :  7.54161e-08
 Reference value :  1.18510e-07
 Reference value :  1.59530e-07
 Reference value :  2.02971e-07
 Reference value :  2.44021e-07
 Reference value :  2.85880e-07
 Reference value :  3.26005e-07
No. of Data Rows : 68034

  Measurements for Transient Analysis

tplh                =  3.53680e-09 targ=  3.24561e-08 trig=  2.89193e-08
tphl                =  5.51517e-09 targ=  1.14273e-07 trig=  1.08758e-07
i_vdd_avg           =  -7.81764e-07 from=  1.00000e-08 to=  3.30005e-07
power_avg_uw        =  1.41936e+00


Total analysis time (seconds) = 2.55988

Total elapsed time (seconds) = 2.627 

Total DRAM available = 16384.000 MB.
DRAM currently available =   88.172 MB.
Maximum ngspice program size =   16.000 MB.
Current ngspice program size =   16.000 MB.

