
Note: No compatibility mode selected!


Circuit: GF180MCU library cell oai21_1 A1_to_ZN__A2=0,B=1

Doing analysis at TEMP = -32.289172 and TNOM = 27.000000

Using SPARSE 1.3 as Direct Linear Solver

Initial Transient Solution
--------------------------

Node                                   Voltage
----                                   -------
vdd                                    1.73253
a1                                           0
a2                                           0
b                                      1.73253
zn                                     1.73253
xu1.net_0                          2.41982e-14
xu1.net_1                              1.73253
vfix_b#branch                                0
vfix_a2#branch                               0
vin#branch                                   0
vdd#branch                        -3.48507e-12

 Reference value :  6.63365e-08
 Reference value :  1.67740e-07
 Reference value :  2.70196e-07
No. of Data Rows : 68032

  Measurements for Transient Analysis

tphl                =  8.83261e-09 targ=  3.84696e-08 trig=  2.96370e-08
tplh                =  2.16991e-08 targ=  1.32610e-07 trig=  1.10911e-07
i_vdd_avg           =  -1.56934e-06 from=  1.00000e-08 to=  3.30000e-07
power_avg_uw        =  2.71894e+00


Total analysis time (seconds) = 1.10548

Total elapsed time (seconds) = 1.187 

Total DRAM available = 16384.000 MB.
DRAM currently available =  132.609 MB.
Maximum ngspice program size =   17.938 MB.
Current ngspice program size =   17.938 MB.

