
Note: No compatibility mode selected!


Circuit: GF180MCU library cell aoi21_4 A1_to_ZN__A2=1,B=0

Doing analysis at TEMP = 8.101199 and TNOM = 27.000000

Using SPARSE 1.3 as Direct Linear Solver

Initial Transient Solution
--------------------------

Node                                   Voltage
----                                   -------
vdd                                    1.62464
a1                                           0
a2                                     1.62464
b                                            0
xu1.net_0_0                        2.00036e-12
zn                                     1.62464
xu1.net_0_1                        2.00039e-12
xu1.net_0_2                        2.00036e-12
xu1.net_0_3                        2.00039e-12
xu1.net_1                              1.62464
vfix_b#branch                                0
vfix_a2#branch                               0
vin#branch                                   0
vdd#branch                        -1.30794e-11

 Reference value :  2.62825e-08
 Reference value :  5.54753e-08
 Reference value :  8.78103e-08
 Reference value :  1.17488e-07
 Reference value :  1.49908e-07
 Reference value :  1.81303e-07
 Reference value :  2.13175e-07
 Reference value :  2.43740e-07
 Reference value :  2.74048e-07
 Reference value :  3.05073e-07
 Reference value :  3.39293e-07
No. of Data Rows : 68034

  Measurements for Transient Analysis

tphl                =  4.20560e-09 targ=  3.24670e-08 trig=  2.82614e-08
tplh                =  8.79773e-09 targ=  1.15582e-07 trig=  1.06784e-07
i_vdd_avg           =  -1.47510e-06 from=  1.00000e-08 to=  3.30003e-07
power_avg_uw        =  2.39650e+00


Total analysis time (seconds) = 3.37329

Total elapsed time (seconds) = 3.444 

Total DRAM available = 16384.000 MB.
DRAM currently available =  132.094 MB.
Maximum ngspice program size =   14.625 MB.
Current ngspice program size =   14.625 MB.

