
Note: No compatibility mode selected!


Circuit: GF180MCU library cell aoi21_4 A1_to_ZN__A2=1,B=0

Doing analysis at TEMP = 40.539949 and TNOM = 27.000000

Using SPARSE 1.3 as Direct Linear Solver

Initial Transient Solution
--------------------------

Node                                   Voltage
----                                   -------
vdd                                    1.73827
a1                                           0
a2                                     1.73827
b                                            0
xu1.net_0_0                        6.77737e-10
zn                                     1.73827
xu1.net_0_1                        6.77737e-10
xu1.net_0_2                        6.77737e-10
xu1.net_0_3                        6.77737e-10
xu1.net_1                              1.73827
vfix_b#branch                                0
vfix_a2#branch                               0
vin#branch                                   0
vdd#branch                        -1.49789e-11

 Reference value :  2.13264e-08
 Reference value :  5.15744e-08
 Reference value :  8.40644e-08
 Reference value :  1.15831e-07
 Reference value :  1.48811e-07
 Reference value :  1.79686e-07
 Reference value :  2.10384e-07
 Reference value :  2.40804e-07
 Reference value :  2.70436e-07
 Reference value :  3.02381e-07
 Reference value :  3.33541e-07
No. of Data Rows : 68030

  Measurements for Transient Analysis

tphl                =  5.38427e-10 targ=  2.52744e-08 trig=  2.47359e-08
tplh                =  1.01863e-09 targ=  9.72264e-08 trig=  9.62078e-08
i_vdd_avg           =  -3.45434e-07 from=  1.00000e-08 to=  3.30001e-07
power_avg_uw        =  6.00458e-01


Total analysis time (seconds) = 3.58392

Total elapsed time (seconds) = 3.652 

Total DRAM available = 16384.000 MB.
DRAM currently available =  125.547 MB.
Maximum ngspice program size =   16.703 MB.
Current ngspice program size =   16.703 MB.

