
Note: No compatibility mode selected!


Circuit: GF180MCU library cell nand2_1 A1_to_ZN__A2=1

Doing analysis at TEMP = -15.844310 and TNOM = 27.000000

Using SPARSE 1.3 as Direct Linear Solver

Initial Transient Solution
--------------------------

Node                                   Voltage
----                                   -------
vdd                                    1.75511
a1                                           0
a2                                     1.75511
xu1.net_0                          1.19686e-10
zn                                     1.75511
vfix_a2#branch                               0
vin#branch                                   0
vdd#branch                         -1.7959e-12

 Reference value :  1.19065e-07
 Reference value :  2.81825e-07
No. of Data Rows : 68034

  Measurements for Transient Analysis

tphl                =  3.51435e-09 targ=  2.97511e-08 trig=  2.62368e-08
tplh                =  4.98305e-09 targ=  1.05693e-07 trig=  1.00710e-07
i_vdd_avg           =  -1.79215e-06 from=  1.00000e-08 to=  3.30005e-07
power_avg_uw        =  3.14541e+00


Total analysis time (seconds) = 0.69999

Total elapsed time (seconds) = 0.785 

Total DRAM available = 16384.000 MB.
DRAM currently available =  124.516 MB.
Maximum ngspice program size =   17.688 MB.
Current ngspice program size =   17.688 MB.

