
Note: No compatibility mode selected!


Circuit: GF180MCU library cell nand3_4 A1_to_ZN__A2=1,A3=1

Doing analysis at TEMP = 91.845788 and TNOM = 27.000000

Using SPARSE 1.3 as Direct Linear Solver

Initial Transient Solution
--------------------------

Node                                   Voltage
----                                   -------
vdd                                    1.84017
a1                                           0
a2                                     1.84017
a3                                     1.84017
xu1.net_1_3                         2.6821e-07
xu1.net_0                           5.3642e-07
xu1.net_1_2                         2.6821e-07
xu1.net_1_1                         2.6821e-07
xu1.net_1_0                         2.6821e-07
xu1.net_0_0                         5.3642e-07
zn                                     1.84017
vfix_a3#branch                               0
vfix_a2#branch                               0
vin#branch                                   0
vdd#branch                        -2.25174e-10

 Reference value :  2.73025e-08
 Reference value :  6.17328e-08
 Reference value :  8.88178e-08
 Reference value :  1.17408e-07
 Reference value :  1.48373e-07
 Reference value :  1.79478e-07
 Reference value :  2.11968e-07
 Reference value :  2.43263e-07
 Reference value :  2.72128e-07
 Reference value :  2.99538e-07
 Reference value :  3.28123e-07
No. of Data Rows : 68032

  Measurements for Transient Analysis

tphl                =  1.87072e-09 targ=  2.80959e-08 trig=  2.62252e-08
tplh                =  2.37610e-09 targ=  1.03052e-07 trig=  1.00676e-07
i_vdd_avg           =  -2.14830e-06 from=  1.00000e-08 to=  3.30003e-07
power_avg_uw        =  3.95322e+00


Total analysis time (seconds) = 3.65771

Total elapsed time (seconds) = 3.725 

Total DRAM available = 16384.000 MB.
DRAM currently available =   91.703 MB.
Maximum ngspice program size =   15.672 MB.
Current ngspice program size =   15.672 MB.

