
Note: No compatibility mode selected!


Circuit: GF180MCU library cell oai21_4 A1_to_ZN__A2=0,B=1

Doing analysis at TEMP = -32.666596 and TNOM = 27.000000

Using SPARSE 1.3 as Direct Linear Solver

Initial Transient Solution
--------------------------

Node                                   Voltage
----                                   -------
vdd                                    1.83553
a1                                           0
a2                                           0
b                                      1.83553
zn                                     1.83553
xu1.net_0                          8.04065e-13
xu1.net_1_0                            1.83553
xu1.net_1_1                            1.83553
xu1.net_1_2                            1.83553
xu1.net_1_3                            1.83553
vfix_b#branch                                0
vfix_a2#branch                               0
vin#branch                                   0
vdd#branch                        -1.47649e-11

 Reference value :  2.40475e-08
 Reference value :  5.73116e-08
 Reference value :  8.69416e-08
 Reference value :  1.15701e-07
 Reference value :  1.46916e-07
 Reference value :  1.78436e-07
 Reference value :  2.09127e-07
 Reference value :  2.40787e-07
 Reference value :  2.68837e-07
 Reference value :  2.99181e-07
 Reference value :  3.31606e-07
No. of Data Rows : 68032

  Measurements for Transient Analysis

tphl                =  2.75226e-09 targ=  3.15618e-08 trig=  2.88095e-08
tplh                =  5.58994e-09 targ=  1.14019e-07 trig=  1.08429e-07
i_vdd_avg           =  -1.99907e-06 from=  1.00000e-08 to=  3.30001e-07
power_avg_uw        =  3.66936e+00


Total analysis time (seconds) = 3.52742

Total elapsed time (seconds) = 3.604 

Total DRAM available = 16384.000 MB.
DRAM currently available =   79.609 MB.
Maximum ngspice program size =   15.719 MB.
Current ngspice program size =   15.719 MB.

