
Note: No compatibility mode selected!


Circuit: GF180MCU library cell nand3_1 A1_to_ZN__A2=1,A3=1

Doing analysis at TEMP = 111.032570 and TNOM = 27.000000

Using SPARSE 1.3 as Direct Linear Solver

Initial Transient Solution
--------------------------

Node                                   Voltage
----                                   -------
vdd                                    1.91447
a1                                           0
a2                                     1.91447
a3                                     1.91447
xu1.net_1                          5.87415e-09
xu1.net_0                          1.17483e-08
zn                                     1.91447
vfix_a3#branch                               0
vfix_a2#branch                               0
vin#branch                                   0
vdd#branch                        -2.56926e-12

 Reference value :  8.51426e-08
 Reference value :  1.89283e-07
 Reference value :  2.81443e-07
No. of Data Rows : 68032

  Measurements for Transient Analysis

tphl                =  4.88285e-09 targ=  2.99079e-08 trig=  2.50251e-08
tplh                =  5.55876e-09 targ=  1.02634e-07 trig=  9.70752e-08
i_vdd_avg           =  -9.16137e-07 from=  1.00000e-08 to=  3.30003e-07
power_avg_uw        =  1.75392e+00


Total analysis time (seconds) = 1.07766

Total elapsed time (seconds) = 1.145 

Total DRAM available = 16384.000 MB.
DRAM currently available =  139.406 MB.
Maximum ngspice program size =   17.062 MB.
Current ngspice program size =   17.062 MB.

