
Note: No compatibility mode selected!


Circuit: GF180MCU library cell nand3_4 A1_to_ZN__A2=1,A3=1

Doing analysis at TEMP = 103.536810 and TNOM = 27.000000

Using SPARSE 1.3 as Direct Linear Solver

Initial Transient Solution
--------------------------

Node                                   Voltage
----                                   -------
vdd                                     1.8321
a1                                           0
a2                                      1.8321
a3                                      1.8321
xu1.net_1_3                        4.77881e-07
xu1.net_0                          9.55762e-07
xu1.net_1_2                        4.77881e-07
xu1.net_1_1                        4.77881e-07
xu1.net_1_0                        4.77881e-07
xu1.net_0_0                        9.55762e-07
zn                                      1.8321
vfix_a3#branch                               0
vfix_a2#branch                               0
vin#branch                                   0
vdd#branch                        -3.83122e-10

 Reference value :  2.76567e-08
 Reference value :  6.14917e-08
 Reference value :  9.17767e-08
 Reference value :  1.23416e-07
 Reference value :  1.54581e-07
 Reference value :  1.87637e-07
 Reference value :  2.18617e-07
 Reference value :  2.49247e-07
 Reference value :  2.78501e-07
 Reference value :  3.04651e-07
 Reference value :  3.34206e-07
No. of Data Rows : 68032

  Measurements for Transient Analysis

tphl                =  1.51069e-09 targ=  2.63328e-08 trig=  2.48221e-08
tplh                =  1.72325e-09 targ=  9.81895e-08 trig=  9.64663e-08
i_vdd_avg           =  -2.13963e-06 from=  1.00000e-08 to=  3.30001e-07
power_avg_uw        =  3.92002e+00


Total analysis time (seconds) = 3.72265

Total elapsed time (seconds) = 3.792 

Total DRAM available = 16384.000 MB.
DRAM currently available =   92.500 MB.
Maximum ngspice program size =   15.328 MB.
Current ngspice program size =   15.328 MB.

