
Note: No compatibility mode selected!


Circuit: GF180MCU library cell mux2_1 I0_to_Z__I1=0,S=0

Doing analysis at TEMP = 13.907515 and TNOM = 27.000000

Using SPARSE 1.3 as Direct Linear Solver

Initial Transient Solution
--------------------------

Node                                   Voltage
----                                   -------
vdd                                    1.69431
i0                                           0
i1                                           0
s                                            0
xu1.int04                              1.69431
z                                  1.50067e-08
xu1.net_1                           0.00154758
xu1.net_3                              1.09353
xu1.sel1_n                             1.69431
xu1.net_0                              1.69431
xu1.net_2                              1.69431
vfix_s#branch                                0
vfix_i1#branch                               0
vin#branch                                   0
vdd#branch                        -9.10421e-12

 Reference value :  5.49895e-08
 Reference value :  1.18572e-07
 Reference value :  1.69822e-07
 Reference value :  2.28445e-07
 Reference value :  2.83377e-07
No. of Data Rows : 68030

  Measurements for Transient Analysis

tplh                =  4.49172e-09 targ=  3.36452e-08 trig=  2.91535e-08
tphl                =  5.81677e-09 targ=  1.15277e-07 trig=  1.09461e-07
i_vdd_avg           =  -4.23486e-07 from=  1.00000e-08 to=  3.30002e-07
power_avg_uw        =  7.17515e-01


Total analysis time (seconds) = 1.79802

Total elapsed time (seconds) = 1.863 

Total DRAM available = 16384.000 MB.
DRAM currently available =   92.562 MB.
Maximum ngspice program size =   13.953 MB.
Current ngspice program size =   13.953 MB.

