
Note: No compatibility mode selected!


Circuit: GF180MCU library cell oai21_4 A1_to_ZN__A2=0,B=1

Doing analysis at TEMP = 87.443656 and TNOM = 27.000000

Using SPARSE 1.3 as Direct Linear Solver

Initial Transient Solution
--------------------------

Node                                   Voltage
----                                   -------
vdd                                    1.92004
a1                                           0
a2                                           0
b                                      1.92004
zn                                     1.92004
xu1.net_0                          4.24114e-07
xu1.net_1_0                            1.92004
xu1.net_1_1                            1.92004
xu1.net_1_2                            1.92004
xu1.net_1_3                            1.92004
vfix_b#branch                                0
vfix_a2#branch                               0
vin#branch                                   0
vdd#branch                        -3.79349e-10

 Reference value :  2.08664e-08
 Reference value :  5.22705e-08
 Reference value :  8.29955e-08
 Reference value :  1.14964e-07
 Reference value :  1.45649e-07
 Reference value :  1.76599e-07
 Reference value :  2.07946e-07
 Reference value :  2.38961e-07
 Reference value :  2.64666e-07
 Reference value :  2.94264e-07
 Reference value :  3.25244e-07
No. of Data Rows : 68034

  Measurements for Transient Analysis

tphl                =  3.09562e-10 targ=  2.83986e-08 trig=  2.80890e-08
tplh                =  2.13589e-09 targ=  1.08403e-07 trig=  1.06267e-07
i_vdd_avg           =  -9.19297e-07 from=  1.00000e-08 to=  3.30004e-07
power_avg_uw        =  1.76509e+00


Total analysis time (seconds) = 3.59135

Total elapsed time (seconds) = 3.659 

Total DRAM available = 16384.000 MB.
DRAM currently available =   79.609 MB.
Maximum ngspice program size =   16.203 MB.
Current ngspice program size =   16.203 MB.

