
Note: No compatibility mode selected!


Circuit: GF180MCU library cell nand3_1 A1_to_ZN__A2=1,A3=1

Doing analysis at TEMP = 46.091316 and TNOM = 27.000000

Using SPARSE 1.3 as Direct Linear Solver

Initial Transient Solution
--------------------------

Node                                   Voltage
----                                   -------
vdd                                    1.79522
a1                                           0
a2                                     1.79522
a3                                     1.79522
xu1.net_1                          6.64607e-11
xu1.net_0                          1.32922e-10
zn                                     1.79522
vfix_a3#branch                               0
vfix_a2#branch                               0
vin#branch                                   0
vdd#branch                        -1.81307e-12

 Reference value :  6.71707e-08
 Reference value :  1.72484e-07
 Reference value :  2.72584e-07
No. of Data Rows : 68034

  Measurements for Transient Analysis

tphl                =  1.02511e-08 targ=  3.69177e-08 trig=  2.66666e-08
tplh                =  1.24974e-08 targ=  1.14497e-07 trig=  1.02000e-07
i_vdd_avg           =  -1.68181e-06 from=  1.00000e-08 to=  3.30004e-07
power_avg_uw        =  3.01921e+00


Total analysis time (seconds) = 1.07154

Total elapsed time (seconds) = 1.143 

Total DRAM available = 16384.000 MB.
DRAM currently available =   98.812 MB.
Maximum ngspice program size =   17.547 MB.
Current ngspice program size =   17.547 MB.

