
Note: No compatibility mode selected!


Circuit: GF180MCU library cell inv_1 I_to_ZN

Doing analysis at TEMP = 30.385232 and TNOM = 27.000000

Using SPARSE 1.3 as Direct Linear Solver

Initial Transient Solution
--------------------------

Node                                   Voltage
----                                   -------
vdd                                    1.93369
i                                            0
zn                                     1.93369
vin#branch                                   0
vdd#branch                        -1.94588e-12

 Reference value :  1.71781e-07
No. of Data Rows : 68030

  Measurements for Transient Analysis

tphl                =  4.92009e-09 targ=  3.37709e-08 trig=  2.88508e-08
tplh                =  8.68845e-09 targ=  1.17241e-07 trig=  1.08552e-07
i_vdd_avg           =  -1.46547e-06 from=  1.00000e-08 to=  3.30001e-07
power_avg_uw        =  2.83376e+00


Total analysis time (seconds) = 0.437861

Total elapsed time (seconds) = 0.503 

Total DRAM available = 16384.000 MB.
DRAM currently available =  126.141 MB.
Maximum ngspice program size =   14.953 MB.
Current ngspice program size =   14.953 MB.

