
Note: No compatibility mode selected!


Circuit: GF180MCU library cell nand3_1 A1_to_ZN__A2=1,A3=1

Doing analysis at TEMP = 3.718964 and TNOM = 27.000000

Using SPARSE 1.3 as Direct Linear Solver

Initial Transient Solution
--------------------------

Node                                   Voltage
----                                   -------
vdd                                    1.81275
a1                                           0
a2                                     1.81275
a3                                     1.81275
xu1.net_1                          7.48816e-10
xu1.net_0                          1.49763e-09
zn                                     1.81275
vfix_a3#branch                               0
vfix_a2#branch                               0
vin#branch                                   0
vdd#branch                        -2.01142e-12

 Reference value :  7.40196e-08
 Reference value :  1.83692e-07
 Reference value :  2.84257e-07
No. of Data Rows : 68030

  Measurements for Transient Analysis

tphl                =  3.94432e-09 targ=  2.80154e-08 trig=  2.40711e-08
tplh                =  4.41398e-09 targ=  9.86271e-08 trig=  9.42132e-08
i_vdd_avg           =  -1.93501e-06 from=  1.00000e-08 to=  3.30002e-07
power_avg_uw        =  3.50768e+00


Total analysis time (seconds) = 1.0464

Total elapsed time (seconds) = 1.129 

Total DRAM available = 16384.000 MB.
DRAM currently available =   98.000 MB.
Maximum ngspice program size =   17.625 MB.
Current ngspice program size =   17.625 MB.

