
Note: No compatibility mode selected!


Circuit: GF180MCU library cell inv_1 I_to_ZN

Doing analysis at TEMP = 26.374601 and TNOM = 27.000000

Using SPARSE 1.3 as Direct Linear Solver

Initial Transient Solution
--------------------------

Node                                   Voltage
----                                   -------
vdd                                    1.66727
i                                            0
zn                                     1.66727
vin#branch                                   0
vdd#branch                        -2.70943e-12

 Reference value :  2.02658e-07
No. of Data Rows : 68032

  Measurements for Transient Analysis

tphl                =  2.94709e-09 targ=  2.95523e-08 trig=  2.66052e-08
tplh                =  5.63580e-09 targ=  1.07451e-07 trig=  1.01816e-07
i_vdd_avg           =  -1.76939e-06 from=  1.00000e-08 to=  3.30003e-07
power_avg_uw        =  2.95006e+00


Total analysis time (seconds) = 0.406177

Total elapsed time (seconds) = 0.473 

Total DRAM available = 16384.000 MB.
DRAM currently available =  109.594 MB.
Maximum ngspice program size =   17.594 MB.
Current ngspice program size =   17.594 MB.

