
Note: No compatibility mode selected!


Circuit: GF180MCU library cell xor2_4 A1_to_Z__A2=0

Doing analysis at TEMP = -20.012335 and TNOM = 27.000000

Using SPARSE 1.3 as Direct Linear Solver

Initial Transient Solution
--------------------------

Node                                   Voltage
----                                   -------
vdd                                    1.96038
a1                                           0
a2                                           0
xu1.net_2                            0.0161227
xu1.i                                  1.96038
xu1.net_0                          1.52065e-10
xu1.z_neg                              1.96038
z                                  7.05739e-09
xu1.net_1                              1.96038
vfix_a2#branch                               0
vin#branch                                   0
vdd#branch                        -1.43568e-11

 Reference value :  2.67269e-08
 Reference value :  6.90569e-08
 Reference value :  1.13836e-07
 Reference value :  1.57706e-07
 Reference value :  1.97757e-07
 Reference value :  2.39672e-07
 Reference value :  2.84791e-07
 Reference value :  3.26136e-07
No. of Data Rows : 68032

  Measurements for Transient Analysis

tplh                =  1.12648e-09 targ=  2.54312e-08 trig=  2.43047e-08
tphl                =  1.22910e-09 targ=  9.61432e-08 trig=  9.49141e-08
i_vdd_avg           =  -2.13760e-06 from=  1.00000e-08 to=  3.30001e-07
power_avg_uw        =  4.19051e+00


Total analysis time (seconds) = 2.55294

Total elapsed time (seconds) = 2.637 

Total DRAM available = 16384.000 MB.
DRAM currently available =  114.578 MB.
Maximum ngspice program size =   18.844 MB.
Current ngspice program size =   18.844 MB.

