
Note: No compatibility mode selected!


Circuit: GF180MCU library cell mux2_4 I0_to_Z__I1=0,S=0

Doing analysis at TEMP = 6.949137 and TNOM = 27.000000

Using SPARSE 1.3 as Direct Linear Solver

Initial Transient Solution
--------------------------

Node                                   Voltage
----                                   -------
vdd                                    1.92051
i0                                           0
i1                                           0
s                                            0
xu1.int04                              1.92051
z                                  7.68018e-09
xu1.net_1                            0.0248568
xu1.net_3                              1.38656
xu1.sel1_n                             1.92051
xu1.net_0                              1.92051
xu1.net_2                              1.92051
vfix_s#branch                                0
vfix_i1#branch                               0
vin#branch                                   0
vdd#branch                        -1.73141e-11

 Reference value :  3.02375e-08
 Reference value :  6.78352e-08
 Reference value :  1.06165e-07
 Reference value :  1.47698e-07
 Reference value :  1.87098e-07
 Reference value :  2.24140e-07
 Reference value :  2.60455e-07
 Reference value :  2.98653e-07
 Reference value :  3.37333e-07
No. of Data Rows : 68034

  Measurements for Transient Analysis

tplh                =  1.68356e-09 targ=  3.02274e-08 trig=  2.85439e-08
tphl                =  2.79499e-09 targ=  1.10427e-07 trig=  1.07632e-07
i_vdd_avg           =  -2.58711e-06 from=  1.00000e-08 to=  3.30003e-07
power_avg_uw        =  4.96858e+00


Total analysis time (seconds) = 2.83535

Total elapsed time (seconds) = 2.907 

Total DRAM available = 16384.000 MB.
DRAM currently available =  108.516 MB.
Maximum ngspice program size =   17.391 MB.
Current ngspice program size =   17.391 MB.

