
Note: No compatibility mode selected!


Circuit: GF180MCU library cell oai21_1 A1_to_ZN__A2=0,B=1

Doing analysis at TEMP = 54.020366 and TNOM = 27.000000

Using SPARSE 1.3 as Direct Linear Solver

Initial Transient Solution
--------------------------

Node                                   Voltage
----                                   -------
vdd                                    1.68814
a1                                           0
a2                                           0
b                                      1.68814
zn                                     1.68814
xu1.net_0                          6.42903e-08
xu1.net_1                              1.68814
vfix_b#branch                                0
vfix_a2#branch                               0
vin#branch                                   0
vdd#branch                        -1.64086e-11

 Reference value :  7.15137e-08
 Reference value :  1.70365e-07
 Reference value :  2.74905e-07
No. of Data Rows : 68032

  Measurements for Transient Analysis

tphl                =  4.25341e-09 targ=  3.34565e-08 trig=  2.92031e-08
tplh                =  8.73567e-09 targ=  1.18345e-07 trig=  1.09609e-07
i_vdd_avg           =  -1.29681e-06 from=  1.00000e-08 to=  3.30005e-07
power_avg_uw        =  2.18920e+00


Total analysis time (seconds) = 1.17484

Total elapsed time (seconds) = 1.253 

Total DRAM available = 16384.000 MB.
DRAM currently available =  142.516 MB.
Maximum ngspice program size =   16.969 MB.
Current ngspice program size =   16.969 MB.

