
Note: No compatibility mode selected!


Circuit: GF180MCU library cell nand2_1 A1_to_ZN__A2=1

Doing analysis at TEMP = 71.697302 and TNOM = 27.000000

Using SPARSE 1.3 as Direct Linear Solver

Initial Transient Solution
--------------------------

Node                                   Voltage
----                                   -------
vdd                                    1.93352
a1                                           0
a2                                     1.93352
xu1.net_0                          4.58447e-10
zn                                     1.93352
vfix_a2#branch                               0
vin#branch                                   0
vdd#branch                        -1.99983e-12

 Reference value :  1.25365e-07
 Reference value :  2.87955e-07
No. of Data Rows : 68034

  Measurements for Transient Analysis

tphl                =  9.88369e-09 targ=  3.93530e-08 trig=  2.94693e-08
tplh                =  1.38471e-08 targ=  1.24255e-07 trig=  1.10408e-07
i_vdd_avg           =  -2.40943e-06 from=  1.00000e-08 to=  3.30005e-07
power_avg_uw        =  4.65868e+00


Total analysis time (seconds) = 0.651946

Total elapsed time (seconds) = 0.724 

Total DRAM available = 16384.000 MB.
DRAM currently available =  108.656 MB.
Maximum ngspice program size =   16.656 MB.
Current ngspice program size =   16.656 MB.

