
Note: No compatibility mode selected!


Circuit: GF180MCU library cell nor2_1 A1_to_ZN__A2=0

Doing analysis at TEMP = -12.704396 and TNOM = 27.000000

Using SPARSE 1.3 as Direct Linear Solver

Initial Transient Solution
--------------------------

Node                                   Voltage
----                                   -------
vdd                                    1.94772
a1                                           0
a2                                           0
zn                                     1.94772
xu1.net_0                              1.94772
vfix_a2#branch                               0
vin#branch                                   0
vdd#branch                        -4.01671e-12

 Reference value :  1.25092e-07
 Reference value :  2.60220e-07
No. of Data Rows : 68030

  Measurements for Transient Analysis

tphl                =  1.27917e-09 targ=  2.83729e-08 trig=  2.70937e-08
tplh                =  2.95805e-09 targ=  1.06239e-07 trig=  1.03281e-07
i_vdd_avg           =  -5.34773e-07 from=  1.00000e-08 to=  3.30002e-07
power_avg_uw        =  1.04159e+00


Total analysis time (seconds) = 0.722256

Total elapsed time (seconds) = 0.775 

Total DRAM available = 16384.000 MB.
DRAM currently available =   84.797 MB.
Maximum ngspice program size =   13.359 MB.
Current ngspice program size =   13.234 MB.

