
Note: No compatibility mode selected!


Circuit: GF180MCU library cell mux2_4 I0_to_Z__I1=0,S=0

Doing analysis at TEMP = 13.449010 and TNOM = 27.000000

Using SPARSE 1.3 as Direct Linear Solver

Initial Transient Solution
--------------------------

Node                                   Voltage
----                                   -------
vdd                                     1.8932
i0                                           0
i1                                           0
s                                            0
xu1.int04                               1.8932
z                                  7.84043e-09
xu1.net_1                            0.0296873
xu1.net_3                              1.37393
xu1.sel1_n                              1.8932
xu1.net_0                               1.8932
xu1.net_2                               1.8932
vfix_s#branch                                0
vfix_i1#branch                               0
vin#branch                                   0
vdd#branch                        -1.74369e-11

 Reference value :  3.61142e-08
 Reference value :  7.94742e-08
 Reference value :  1.19656e-07
 Reference value :  1.60121e-07
 Reference value :  1.99149e-07
 Reference value :  2.35404e-07
 Reference value :  2.76491e-07
 Reference value :  3.14811e-07
No. of Data Rows : 68030

  Measurements for Transient Analysis

tplh                =  1.38294e-09 targ=  3.02413e-08 trig=  2.88584e-08
tphl                =  2.72686e-09 targ=  1.11302e-07 trig=  1.08575e-07
i_vdd_avg           =  -1.68668e-06 from=  1.00000e-08 to=  3.30001e-07
power_avg_uw        =  3.19323e+00


Total analysis time (seconds) = 2.7636

Total elapsed time (seconds) = 2.833 

Total DRAM available = 16384.000 MB.
DRAM currently available =  157.578 MB.
Maximum ngspice program size =   13.719 MB.
Current ngspice program size =   13.719 MB.

