
Note: No compatibility mode selected!


Circuit: GF180MCU library cell xor2_1 A1_to_Z__A2=0

Doing analysis at TEMP = 80.217438 and TNOM = 27.000000

Using SPARSE 1.3 as Direct Linear Solver

Initial Transient Solution
--------------------------

Node                                   Voltage
----                                   -------
vdd                                    1.66555
a1                                           0
a2                                           0
xu1.i                                  1.66555
z                                  6.42304e-08
xu1.net_0                          1.51445e-08
xu1.net_2                              1.66555
xu1.net_1                             0.719532
vfix_a2#branch                               0
vin#branch                                   0
vdd#branch                        -1.06492e-11

 Reference value :  5.10847e-08
 Reference value :  1.21257e-07
 Reference value :  1.93590e-07
 Reference value :  2.67502e-07
 Reference value :  3.39887e-07
No. of Data Rows : 68030

  Measurements for Transient Analysis

tplh                =  1.78127e-08 targ=  4.25788e-08 trig=  2.47661e-08
tphl                =  5.56605e-09 targ=  1.01864e-07 trig=  9.62983e-08
i_vdd_avg           =  -1.21749e-06 from=  1.00000e-08 to=  3.30002e-07
power_avg_uw        =  2.02778e+00


Total analysis time (seconds) = 1.48151

Total elapsed time (seconds) = 1.546 

Total DRAM available = 16384.000 MB.
DRAM currently available =  108.391 MB.
Maximum ngspice program size =   16.641 MB.
Current ngspice program size =   16.641 MB.

