
Note: No compatibility mode selected!


Circuit: GF180MCU library cell inv_1 I_to_ZN

Doing analysis at TEMP = -10.479792 and TNOM = 27.000000

Using SPARSE 1.3 as Direct Linear Solver

Initial Transient Solution
--------------------------

Node                                   Voltage
----                                   -------
vdd                                     1.9077
i                                            0
zn                                      1.9077
vin#branch                                   0
vdd#branch                        -1.97334e-12

 Reference value :  2.04691e-07
No. of Data Rows : 68032

  Measurements for Transient Analysis

tphl                =  1.29737e-09 targ=  3.10268e-08 trig=  2.97294e-08
tplh                =  3.47494e-09 targ=  1.14663e-07 trig=  1.11188e-07
i_vdd_avg           =  -6.47054e-07 from=  1.00000e-08 to=  3.30000e-07
power_avg_uw        =  1.23439e+00


Total analysis time (seconds) = 0.392923

Total elapsed time (seconds) = 0.472 

Total DRAM available = 16384.000 MB.
DRAM currently available =  145.141 MB.
Maximum ngspice program size =   18.312 MB.
Current ngspice program size =   18.312 MB.

