
Note: No compatibility mode selected!


Circuit: GF180MCU library cell nor2_4 A1_to_ZN__A2=0

Doing analysis at TEMP = 13.144503 and TNOM = 27.000000

Using SPARSE 1.3 as Direct Linear Solver

Initial Transient Solution
--------------------------

Node                                   Voltage
----                                   -------
vdd                                    1.89154
a1                                           0
a2                                           0
zn                                     1.89154
xu1.net_0_0                            1.89154
xu1.net_0_1                            1.89154
xu1.net_0_2                            1.89154
xu1.net_0_3                            1.89154
vfix_a2#branch                               0
vin#branch                                   0
vdd#branch                         -1.8814e-11

 Reference value :  3.12725e-08
 Reference value :  7.57446e-08
 Reference value :  1.23897e-07
 Reference value :  1.72862e-07
 Reference value :  2.23425e-07
 Reference value :  2.67215e-07
 Reference value :  3.13477e-07
No. of Data Rows : 68030

  Measurements for Transient Analysis

tphl                =  6.27729e-10 targ=  2.90513e-08 trig=  2.84235e-08
tplh                =  2.45676e-09 targ=  1.09727e-07 trig=  1.07271e-07
i_vdd_avg           =  -1.06646e-06 from=  1.00000e-08 to=  3.30002e-07
power_avg_uw        =  2.01725e+00


Total analysis time (seconds) = 2.3292

Total elapsed time (seconds) = 2.394 

Total DRAM available = 16384.000 MB.
DRAM currently available =  135.672 MB.
Maximum ngspice program size =   17.125 MB.
Current ngspice program size =   17.125 MB.

