
Note: No compatibility mode selected!


Circuit: GF180MCU library cell mux2_1 I0_to_Z__I1=0,S=0

Doing analysis at TEMP = 10.014695 and TNOM = 27.000000

Using SPARSE 1.3 as Direct Linear Solver

Initial Transient Solution
--------------------------

Node                                   Voltage
----                                   -------
vdd                                    1.64112
i0                                           0
i1                                           0
s                                            0
xu1.int04                              1.64112
z                                  1.06361e-08
xu1.net_1                            0.0112645
xu1.net_3                              1.13264
xu1.sel1_n                             1.64112
xu1.net_0                              1.64112
xu1.net_2                              1.64112
vfix_s#branch                                0
vfix_i1#branch                               0
vin#branch                                   0
vdd#branch                        -9.09636e-12

 Reference value :  4.80730e-08
 Reference value :  1.04338e-07
 Reference value :  1.59993e-07
 Reference value :  2.11578e-07
 Reference value :  2.66313e-07
 Reference value :  3.23783e-07
No. of Data Rows : 68032

  Measurements for Transient Analysis

tplh                =  6.81566e-09 targ=  3.54559e-08 trig=  2.86402e-08
tphl                =  5.63362e-09 targ=  1.13554e-07 trig=  1.07921e-07
i_vdd_avg           =  -1.45078e-06 from=  1.00000e-08 to=  3.30003e-07
power_avg_uw        =  2.38089e+00


Total analysis time (seconds) = 1.92063

Total elapsed time (seconds) = 1.989 

Total DRAM available = 16384.000 MB.
DRAM currently available =   85.844 MB.
Maximum ngspice program size =   16.250 MB.
Current ngspice program size =   16.250 MB.

