
Note: No compatibility mode selected!


Circuit: GF180MCU library cell mux2_4 I0_to_Z__I1=0,S=0

Doing analysis at TEMP = 45.431620 and TNOM = 27.000000

Using SPARSE 1.3 as Direct Linear Solver

Initial Transient Solution
--------------------------

Node                                   Voltage
----                                   -------
vdd                                    1.79738
i0                                           0
i1                                           0
s                                            0
xu1.int04                              1.79738
z                                  1.58544e-08
xu1.net_1                           0.00247117
xu1.net_3                               1.1298
xu1.sel1_n                             1.79738
xu1.net_0                              1.79738
xu1.net_2                              1.79738
vfix_s#branch                                0
vfix_i1#branch                               0
vin#branch                                   0
vdd#branch                        -1.52457e-11

 Reference value :  3.04475e-08
 Reference value :  6.58356e-08
 Reference value :  1.06296e-07
 Reference value :  1.46554e-07
 Reference value :  1.85338e-07
 Reference value :  2.20516e-07
 Reference value :  2.61076e-07
 Reference value :  3.02989e-07
No. of Data Rows : 68034

  Measurements for Transient Analysis

tplh                =  5.44601e-09 targ=  3.30926e-08 trig=  2.76465e-08
tphl                =  5.84939e-09 targ=  1.10789e-07 trig=  1.04940e-07
i_vdd_avg           =  -2.46560e-06 from=  1.00000e-08 to=  3.30004e-07
power_avg_uw        =  4.43163e+00


Total analysis time (seconds) = 2.77084

Total elapsed time (seconds) = 2.838 

Total DRAM available = 16384.000 MB.
DRAM currently available =   94.297 MB.
Maximum ngspice program size =   15.156 MB.
Current ngspice program size =   15.156 MB.

