
Note: No compatibility mode selected!


Circuit: GF180MCU library cell aoi21_4 A1_to_ZN__A2=1,B=0

Doing analysis at TEMP = -3.078218 and TNOM = 27.000000

Using SPARSE 1.3 as Direct Linear Solver

Initial Transient Solution
--------------------------

Node                                   Voltage
----                                   -------
vdd                                    1.80564
a1                                           0
a2                                     1.80564
b                                            0
xu1.net_0_0                        5.21079e-13
zn                                     1.80564
xu1.net_0_1                        5.20531e-13
xu1.net_0_2                        5.21079e-13
xu1.net_0_3                        5.20531e-13
xu1.net_1                              1.80564
vfix_b#branch                                0
vfix_a2#branch                               0
vin#branch                                   0
vdd#branch                        -1.45258e-11

 Reference value :  2.02964e-08
 Reference value :  5.17720e-08
 Reference value :  8.39720e-08
 Reference value :  1.13987e-07
 Reference value :  1.46342e-07
 Reference value :  1.77722e-07
 Reference value :  2.09182e-07
 Reference value :  2.39862e-07
 Reference value :  2.68152e-07
 Reference value :  2.97817e-07
 Reference value :  3.28917e-07
No. of Data Rows : 68032

  Measurements for Transient Analysis

tphl                =  2.55217e-09 targ=  2.92444e-08 trig=  2.66923e-08
tplh                =  5.09382e-09 targ=  1.07171e-07 trig=  1.02077e-07
i_vdd_avg           =  -1.34850e-06 from=  1.00000e-08 to=  3.30002e-07
power_avg_uw        =  2.43490e+00


Total analysis time (seconds) = 3.54614

Total elapsed time (seconds) = 3.628 

Total DRAM available = 16384.000 MB.
DRAM currently available =  127.438 MB.
Maximum ngspice program size =   16.547 MB.
Current ngspice program size =   16.547 MB.

