
Note: No compatibility mode selected!


Circuit: GF180MCU library cell nand3_1 A1_to_ZN__A2=1,A3=1

Doing analysis at TEMP = 123.982060 and TNOM = 27.000000

Using SPARSE 1.3 as Direct Linear Solver

Initial Transient Solution
--------------------------

Node                                   Voltage
----                                   -------
vdd                                    1.93151
a1                                           0
a2                                     1.93151
a3                                     1.93151
xu1.net_1                          1.19672e-06
xu1.net_0                          2.39344e-06
zn                                     1.93151
vfix_a3#branch                               0
vfix_a2#branch                               0
vin#branch                                   0
vdd#branch                        -2.38974e-10

 Reference value :  7.87014e-08
 Reference value :  1.78535e-07
 Reference value :  2.78185e-07
No. of Data Rows : 68032

  Measurements for Transient Analysis

tphl                =  1.70817e-09 targ=  2.99126e-08 trig=  2.82045e-08
tplh                =  2.73608e-09 targ=  1.09349e-07 trig=  1.06613e-07
i_vdd_avg           =  -5.01805e-07 from=  1.00000e-08 to=  3.30000e-07
power_avg_uw        =  9.69242e-01


Total analysis time (seconds) = 1.12421

Total elapsed time (seconds) = 1.182 

Total DRAM available = 16384.000 MB.
DRAM currently available =  147.000 MB.
Maximum ngspice program size =   13.203 MB.
Current ngspice program size =   13.203 MB.

