
Note: No compatibility mode selected!


Circuit: GF180MCU library cell nand3_4 A1_to_ZN__A2=1,A3=1

Doing analysis at TEMP = 35.519735 and TNOM = 27.000000

Using SPARSE 1.3 as Direct Linear Solver

Initial Transient Solution
--------------------------

Node                                   Voltage
----                                   -------
vdd                                     1.8938
a1                                           0
a2                                      1.8938
a3                                      1.8938
xu1.net_1_3                        2.56062e-11
xu1.net_0                          5.12123e-11
xu1.net_1_2                        2.56062e-11
xu1.net_1_1                        2.56062e-11
xu1.net_1_0                        2.56062e-11
xu1.net_0_0                        5.12125e-11
zn                                      1.8938
vfix_a3#branch                               0
vfix_a2#branch                               0
vin#branch                                   0
vdd#branch                        -7.62872e-12

 Reference value :  2.35664e-08
 Reference value :  5.40670e-08
 Reference value :  8.38970e-08
 Reference value :  1.14877e-07
 Reference value :  1.47047e-07
 Reference value :  1.77997e-07
 Reference value :  2.08402e-07
 Reference value :  2.37172e-07
 Reference value :  2.66027e-07
 Reference value :  2.97992e-07
 Reference value :  3.27902e-07
No. of Data Rows : 68032

  Measurements for Transient Analysis

tphl                =  4.62904e-09 targ=  3.42338e-08 trig=  2.96048e-08
tplh                =  6.04569e-09 targ=  1.16860e-07 trig=  1.10814e-07
i_vdd_avg           =  -1.92156e-06 from=  1.00000e-08 to=  3.30002e-07
power_avg_uw        =  3.63905e+00


Total analysis time (seconds) = 3.67845

Total elapsed time (seconds) = 3.749 

Total DRAM available = 16384.000 MB.
DRAM currently available =   87.203 MB.
Maximum ngspice program size =   16.266 MB.
Current ngspice program size =   16.266 MB.

