
Note: No compatibility mode selected!


Circuit: GF180MCU library cell aoi21_1 A1_to_ZN__A2=1,B=0

Doing analysis at TEMP = 74.690982 and TNOM = 27.000000

Using SPARSE 1.3 as Direct Linear Solver

Initial Transient Solution
--------------------------

Node                                   Voltage
----                                   -------
vdd                                    1.83599
a1                                           0
a2                                     1.83599
b                                            0
xu1.net_0                          5.88241e-10
zn                                     1.83599
xu1.net_1                              1.83599
vfix_b#branch                                0
vfix_a2#branch                               0
vin#branch                                   0
vdd#branch                         -3.8421e-12

 Reference value :  7.22395e-08
 Reference value :  1.79232e-07
 Reference value :  2.81887e-07
No. of Data Rows : 68030

  Measurements for Transient Analysis

tphl                =  3.16696e-09 targ=  2.90355e-08 trig=  2.58685e-08
tplh                =  7.48593e-09 targ=  1.07091e-07 trig=  9.96056e-08
i_vdd_avg           =  -6.31480e-07 from=  1.00000e-08 to=  3.30002e-07
power_avg_uw        =  1.15939e+00


Total analysis time (seconds) = 1.01319

Total elapsed time (seconds) = 1.083 

Total DRAM available = 16384.000 MB.
DRAM currently available =  148.812 MB.
Maximum ngspice program size =   17.719 MB.
Current ngspice program size =   17.719 MB.

