
Note: No compatibility mode selected!


Circuit: GF180MCU library cell nand2_1 A1_to_ZN__A2=1

Doing analysis at TEMP = 16.892346 and TNOM = 27.000000

Using SPARSE 1.3 as Direct Linear Solver

Initial Transient Solution
--------------------------

Node                                   Voltage
----                                   -------
vdd                                    1.74788
a1                                           0
a2                                     1.74788
xu1.net_0                          9.24851e-11
zn                                     1.74788
vfix_a2#branch                               0
vin#branch                                   0
vdd#branch                        -1.77398e-12

 Reference value :  1.15866e-07
 Reference value :  2.68376e-07
No. of Data Rows : 68032

  Measurements for Transient Analysis

tphl                =  6.05065e-09 targ=  3.26604e-08 trig=  2.66097e-08
tplh                =  8.74890e-09 targ=  1.10578e-07 trig=  1.01829e-07
i_vdd_avg           =  -2.05356e-06 from=  1.00000e-08 to=  3.30001e-07
power_avg_uw        =  3.58936e+00


Total analysis time (seconds) = 0.724975

Total elapsed time (seconds) = 0.796 

Total DRAM available = 16384.000 MB.
DRAM currently available =  119.094 MB.
Maximum ngspice program size =   18.656 MB.
Current ngspice program size =   18.656 MB.

