
Note: No compatibility mode selected!


Circuit: GF180MCU library cell oai21_1 A1_to_ZN__A2=0,B=1

Doing analysis at TEMP = 1.630554 and TNOM = 27.000000

Using SPARSE 1.3 as Direct Linear Solver

Initial Transient Solution
--------------------------

Node                                   Voltage
----                                   -------
vdd                                    1.78318
a1                                           0
a2                                           0
b                                      1.78318
zn                                     1.78318
xu1.net_0                          4.24244e-11
xu1.net_1                              1.78318
vfix_b#branch                                0
vfix_a2#branch                               0
vin#branch                                   0
vdd#branch                         -3.5943e-12

 Reference value :  7.19961e-08
 Reference value :  1.77665e-07
 Reference value :  2.74775e-07
No. of Data Rows : 68034

  Measurements for Transient Analysis

tphl                =  3.84365e-09 targ=  3.19079e-08 trig=  2.80643e-08
tplh                =  7.81223e-09 targ=  1.14005e-07 trig=  1.06193e-07
i_vdd_avg           =  -9.11347e-07 from=  1.00000e-08 to=  3.30005e-07
power_avg_uw        =  1.62509e+00


Total analysis time (seconds) = 1.07802

Total elapsed time (seconds) = 1.143 

Total DRAM available = 16384.000 MB.
DRAM currently available =  105.797 MB.
Maximum ngspice program size =   16.156 MB.
Current ngspice program size =   16.156 MB.

