
Note: No compatibility mode selected!


Circuit: GF180MCU library cell nor2_1 A1_to_ZN__A2=0

Doing analysis at TEMP = 94.005663 and TNOM = 27.000000

Using SPARSE 1.3 as Direct Linear Solver

Initial Transient Solution
--------------------------

Node                                   Voltage
----                                   -------
vdd                                    1.89423
a1                                           0
a2                                           0
zn                                     1.89423
xu1.net_0                              1.89423
vfix_a2#branch                               0
vin#branch                                   0
vdd#branch                        -4.30342e-12

 Reference value :  1.43979e-07
 Reference value :  2.89399e-07
No. of Data Rows : 68032

  Measurements for Transient Analysis

tphl                =  3.61975e-09 targ=  3.20526e-08 trig=  2.84329e-08
tplh                =  7.54343e-09 targ=  1.14842e-07 trig=  1.07299e-07
i_vdd_avg           =  -5.59540e-07 from=  1.00000e-08 to=  3.30004e-07
power_avg_uw        =  1.05990e+00


Total analysis time (seconds) = 0.677562

Total elapsed time (seconds) = 0.731 

Total DRAM available = 16384.000 MB.
DRAM currently available =   84.797 MB.
Maximum ngspice program size =   12.828 MB.
Current ngspice program size =   12.562 MB.

