
Note: No compatibility mode selected!


Circuit: GF180MCU library cell nor2_1 A1_to_ZN__A2=0

Doing analysis at TEMP = -3.990603 and TNOM = 27.000000

Using SPARSE 1.3 as Direct Linear Solver

Initial Transient Solution
--------------------------

Node                                   Voltage
----                                   -------
vdd                                    1.92627
a1                                           0
a2                                           0
zn                                     1.92627
xu1.net_0                              1.92627
vfix_a2#branch                               0
vin#branch                                   0
vdd#branch                        -3.87818e-12

 Reference value :  1.07595e-07
 Reference value :  2.53455e-07
No. of Data Rows : 68030

  Measurements for Transient Analysis

tphl                =  5.84854e-09 targ=  3.52397e-08 trig=  2.93912e-08
tplh                =  1.38226e-08 targ=  1.23996e-07 trig=  1.10174e-07
i_vdd_avg           =  -2.35031e-06 from=  1.00000e-08 to=  3.30002e-07
power_avg_uw        =  4.52733e+00


Total analysis time (seconds) = 0.765414

Total elapsed time (seconds) = 0.840 

Total DRAM available = 16384.000 MB.
DRAM currently available =  102.938 MB.
Maximum ngspice program size =   16.016 MB.
Current ngspice program size =   16.016 MB.

