
Note: No compatibility mode selected!


Circuit: GF180MCU library cell aoi21_4 A1_to_ZN__A2=1,B=0

Doing analysis at TEMP = 72.003921 and TNOM = 27.000000

Using SPARSE 1.3 as Direct Linear Solver

Initial Transient Solution
--------------------------

Node                                   Voltage
----                                   -------
vdd                                    1.63481
a1                                           0
a2                                     1.63481
b                                            0
xu1.net_0_0                        5.35119e-10
zn                                     1.63481
xu1.net_0_1                        5.35119e-10
xu1.net_0_2                        5.35119e-10
xu1.net_0_3                        5.35119e-10
xu1.net_1                              1.63481
vfix_b#branch                                0
vfix_a2#branch                               0
vin#branch                                   0
vdd#branch                        -1.36204e-11

 Reference value :  2.10514e-08
 Reference value :  5.17763e-08
 Reference value :  8.27713e-08
 Reference value :  1.12925e-07
 Reference value :  1.45900e-07
 Reference value :  1.76775e-07
 Reference value :  2.09436e-07
 Reference value :  2.38501e-07
 Reference value :  2.66950e-07
 Reference value :  2.95810e-07
 Reference value :  3.26660e-07
No. of Data Rows : 68032

  Measurements for Transient Analysis

tphl                =  7.28571e-10 targ=  2.58680e-08 trig=  2.51394e-08
tplh                =  1.29859e-09 targ=  9.87169e-08 trig=  9.74183e-08
i_vdd_avg           =  -1.43040e-07 from=  1.00000e-08 to=  3.30000e-07
power_avg_uw        =  2.33843e-01


Total analysis time (seconds) = 3.60232

Total elapsed time (seconds) = 3.669 

Total DRAM available = 16384.000 MB.
DRAM currently available =  132.094 MB.
Maximum ngspice program size =   14.094 MB.
Current ngspice program size =   14.094 MB.

