
Note: No compatibility mode selected!


Circuit: GF180MCU library cell mux2_1 I0_to_Z__I1=0,S=0

Doing analysis at TEMP = -38.723892 and TNOM = 27.000000

Using SPARSE 1.3 as Direct Linear Solver

Initial Transient Solution
--------------------------

Node                                   Voltage
----                                   -------
vdd                                    1.92837
i0                                           0
i1                                           0
s                                            0
xu1.int04                              1.92837
z                                  8.59004e-09
xu1.net_1                          0.000157628
xu1.net_3                              1.28436
xu1.sel1_n                             1.92837
xu1.net_0                              1.92837
xu1.net_2                              1.92837
vfix_s#branch                                0
vfix_i1#branch                               0
vin#branch                                   0
vdd#branch                        -1.04407e-11

 Reference value :  5.49816e-08
 Reference value :  1.22411e-07
 Reference value :  1.75786e-07
 Reference value :  2.29357e-07
 Reference value :  2.84811e-07
 Reference value :  3.37206e-07
No. of Data Rows : 68032

  Measurements for Transient Analysis

tplh                =  3.31074e-09 targ=  3.14778e-08 trig=  2.81670e-08
tphl                =  3.58759e-09 targ=  1.10089e-07 trig=  1.06501e-07
i_vdd_avg           =  -1.26025e-06 from=  1.00000e-08 to=  3.30001e-07
power_avg_uw        =  2.43022e+00


Total analysis time (seconds) = 1.87636

Total elapsed time (seconds) = 1.942 

Total DRAM available = 16384.000 MB.
DRAM currently available =   96.281 MB.
Maximum ngspice program size =   14.844 MB.
Current ngspice program size =   14.844 MB.

