
Note: No compatibility mode selected!


Circuit: GF180MCU library cell xor2_4 A1_to_Z__A2=0

Doing analysis at TEMP = 13.570514 and TNOM = 27.000000

Using SPARSE 1.3 as Direct Linear Solver

Initial Transient Solution
--------------------------

Node                                   Voltage
----                                   -------
vdd                                    1.63554
a1                                           0
a2                                           0
xu1.net_2                            0.0374218
xu1.i                                  1.63554
xu1.net_0                          3.55471e-09
xu1.z_neg                              1.63554
z                                  8.01417e-09
xu1.net_1                              1.63554
vfix_a2#branch                               0
vin#branch                                   0
vdd#branch                        -1.29763e-11

 Reference value :  2.89384e-08
 Reference value :  7.09134e-08
 Reference value :  1.13099e-07
 Reference value :  1.54299e-07
 Reference value :  1.98928e-07
 Reference value :  2.39618e-07
 Reference value :  2.80959e-07
 Reference value :  3.21319e-07
No. of Data Rows : 68032

  Measurements for Transient Analysis

tplh                =  1.04078e-09 targ=  2.50512e-08 trig=  2.40104e-08
tphl                =  1.40480e-09 targ=  9.54361e-08 trig=  9.40313e-08
i_vdd_avg           =  -1.09444e-06 from=  1.00000e-08 to=  3.30004e-07
power_avg_uw        =  1.79001e+00


Total analysis time (seconds) = 2.64211

Total elapsed time (seconds) = 2.721 

Total DRAM available = 16384.000 MB.
DRAM currently available =   67.094 MB.
Maximum ngspice program size =   16.234 MB.
Current ngspice program size =   16.234 MB.

