
Note: No compatibility mode selected!


Circuit: GF180MCU library cell nand3_1 A1_to_ZN__A2=1,A3=1

Doing analysis at TEMP = -5.198836 and TNOM = 27.000000

Using SPARSE 1.3 as Direct Linear Solver

Initial Transient Solution
--------------------------

Node                                   Voltage
----                                   -------
vdd                                    1.83328
a1                                           0
a2                                     1.83328
a3                                     1.83328
xu1.net_1                          1.03157e-11
xu1.net_0                          2.06314e-11
zn                                     1.83328
vfix_a3#branch                               0
vfix_a2#branch                               0
vin#branch                                   0
vdd#branch                        -1.84532e-12

 Reference value :  9.93097e-08
 Reference value :  2.07945e-07
 Reference value :  3.01632e-07
No. of Data Rows : 68030

  Measurements for Transient Analysis

tphl                =  1.90480e-09 targ=  2.88584e-08 trig=  2.69536e-08
tplh                =  2.70534e-09 targ=  1.05566e-07 trig=  1.02861e-07
i_vdd_avg           =  -2.83040e-07 from=  1.00000e-08 to=  3.30002e-07
power_avg_uw        =  5.18891e-01


Total analysis time (seconds) = 0.997973

Total elapsed time (seconds) = 1.056 

Total DRAM available = 16384.000 MB.
DRAM currently available =   98.000 MB.
Maximum ngspice program size =   15.672 MB.
Current ngspice program size =   15.672 MB.

