
Note: No compatibility mode selected!


Circuit: GF180MCU library cell nand3_4 A1_to_ZN__A2=1,A3=1

Doing analysis at TEMP = 48.925117 and TNOM = 27.000000

Using SPARSE 1.3 as Direct Linear Solver

Initial Transient Solution
--------------------------

Node                                   Voltage
----                                   -------
vdd                                     1.9693
a1                                           0
a2                                      1.9693
a3                                      1.9693
xu1.net_1_3                        7.86642e-11
xu1.net_0                          1.57328e-10
xu1.net_1_2                        7.86642e-11
xu1.net_1_1                        7.86642e-11
xu1.net_1_0                        7.86641e-11
xu1.net_0_0                        1.57328e-10
zn                                      1.9693
vfix_a3#branch                               0
vfix_a2#branch                               0
vin#branch                                   0
vdd#branch                         -7.9594e-12

 Reference value :  2.38064e-08
 Reference value :  5.41944e-08
 Reference value :  8.58844e-08
 Reference value :  1.17106e-07
 Reference value :  1.46991e-07
 Reference value :  1.79361e-07
 Reference value :  2.09889e-07
 Reference value :  2.37634e-07
 Reference value :  2.67041e-07
 Reference value :  2.97266e-07
 Reference value :  3.25126e-07
No. of Data Rows : 68030

  Measurements for Transient Analysis

tphl                =  3.71885e-09 targ=  3.06073e-08 trig=  2.68885e-08
tplh                =  4.59081e-09 targ=  1.07256e-07 trig=  1.02665e-07
i_vdd_avg           =  -2.41945e-06 from=  1.00000e-08 to=  3.30001e-07
power_avg_uw        =  4.76462e+00


Total analysis time (seconds) = 3.69357

Total elapsed time (seconds) = 3.756 

Total DRAM available = 16384.000 MB.
DRAM currently available =   85.172 MB.
Maximum ngspice program size =   15.453 MB.
Current ngspice program size =   15.453 MB.

