
Note: No compatibility mode selected!


Circuit: GF180MCU library cell oai21_4 A1_to_ZN__A2=0,B=1

Doing analysis at TEMP = 116.982750 and TNOM = 27.000000

Using SPARSE 1.3 as Direct Linear Solver

Initial Transient Solution
--------------------------

Node                                   Voltage
----                                   -------
vdd                                    1.79283
a1                                           0
a2                                           0
b                                      1.79283
zn                                     1.79282
xu1.net_0                          1.78646e-06
xu1.net_1_0                            1.79282
xu1.net_1_1                            1.79282
xu1.net_1_2                            1.79282
xu1.net_1_3                            1.79282
vfix_b#branch                                0
vfix_a2#branch                               0
vin#branch                                   0
vdd#branch                        -1.34604e-09

 Reference value :  2.17264e-08
 Reference value :  5.06064e-08
 Reference value :  8.11764e-08
 Reference value :  1.12385e-07
 Reference value :  1.46175e-07
 Reference value :  1.77615e-07
 Reference value :  2.08996e-07
 Reference value :  2.40221e-07
 Reference value :  2.65705e-07
 Reference value :  2.96330e-07
 Reference value :  3.27305e-07
No. of Data Rows : 68032

  Measurements for Transient Analysis

tphl                =  1.75188e-09 targ=  2.78963e-08 trig=  2.61445e-08
tplh                =  3.87726e-09 targ=  1.04311e-07 trig=  1.00433e-07
i_vdd_avg           =  -2.44618e-06 from=  1.00000e-08 to=  3.30000e-07
power_avg_uw        =  4.38558e+00


Total analysis time (seconds) = 3.61563

Total elapsed time (seconds) = 3.683 

Total DRAM available = 16384.000 MB.
DRAM currently available =  124.828 MB.
Maximum ngspice program size =   16.750 MB.
Current ngspice program size =   16.750 MB.

