
Note: No compatibility mode selected!


Circuit: GF180MCU library cell aoi21_1 A1_to_ZN__A2=1,B=0

Doing analysis at TEMP = 73.834450 and TNOM = 27.000000

Using SPARSE 1.3 as Direct Linear Solver

Initial Transient Solution
--------------------------

Node                                   Voltage
----                                   -------
vdd                                    1.80695
a1                                           0
a2                                     1.80695
b                                            0
xu1.net_0                          6.96313e-09
zn                                     1.80695
xu1.net_1                              1.80695
vfix_b#branch                                0
vfix_a2#branch                               0
vin#branch                                   0
vdd#branch                         -6.0077e-12

 Reference value :  6.69742e-08
 Reference value :  1.68126e-07
 Reference value :  2.67419e-07
No. of Data Rows : 68030

  Measurements for Transient Analysis

tphl                =  3.27401e-09 targ=  3.24874e-08 trig=  2.92133e-08
tplh                =  6.42154e-09 targ=  1.16062e-07 trig=  1.09640e-07
i_vdd_avg           =  -5.93557e-07 from=  1.00000e-08 to=  3.30001e-07
power_avg_uw        =  1.07253e+00


Total analysis time (seconds) = 1.11486

Total elapsed time (seconds) = 1.195 

Total DRAM available = 16384.000 MB.
DRAM currently available =   84.031 MB.
Maximum ngspice program size =   15.938 MB.
Current ngspice program size =   15.938 MB.

