
Note: No compatibility mode selected!


Circuit: GF180MCU library cell nand3_1 A1_to_ZN__A2=1,A3=1

Doing analysis at TEMP = 70.256809 and TNOM = 27.000000

Using SPARSE 1.3 as Direct Linear Solver

Initial Transient Solution
--------------------------

Node                                   Voltage
----                                   -------
vdd                                    1.74769
a1                                           0
a2                                     1.74769
a3                                     1.74769
xu1.net_1                          5.61548e-09
xu1.net_0                           1.1231e-08
zn                                     1.74769
vfix_a3#branch                               0
vfix_a2#branch                               0
vin#branch                                   0
vdd#branch                         -2.6049e-12

 Reference value :  7.50068e-08
 Reference value :  1.84208e-07
 Reference value :  2.84481e-07
No. of Data Rows : 68032

  Measurements for Transient Analysis

tphl                =  8.81239e-10 targ=  2.72909e-08 trig=  2.64097e-08
tplh                =  1.51289e-09 targ=  1.02742e-07 trig=  1.01229e-07
i_vdd_avg           =  -8.34334e-08 from=  1.00000e-08 to=  3.30001e-07
power_avg_uw        =  1.45815e-01


Total analysis time (seconds) = 1.01625

Total elapsed time (seconds) = 1.084 

Total DRAM available = 16384.000 MB.
DRAM currently available =   98.812 MB.
Maximum ngspice program size =   18.062 MB.
Current ngspice program size =   18.062 MB.

