
Note: No compatibility mode selected!


Circuit: GF180MCU library cell xor2_1 A1_to_Z__A2=0

Doing analysis at TEMP = -28.585365 and TNOM = 27.000000

Using SPARSE 1.3 as Direct Linear Solver

Initial Transient Solution
--------------------------

Node                                   Voltage
----                                   -------
vdd                                    1.64593
a1                                           0
a2                                           0
xu1.i                                  1.64593
z                                  2.48752e-08
xu1.net_0                          5.31456e-10
xu1.net_2                              1.64593
xu1.net_1                             0.705262
vfix_a2#branch                               0
vin#branch                                   0
vdd#branch                        -9.54394e-12

 Reference value :  5.27676e-08
 Reference value :  1.25623e-07
 Reference value :  1.96608e-07
 Reference value :  2.68843e-07
 Reference value :  3.39898e-07
No. of Data Rows : 68032

  Measurements for Transient Analysis

tplh                =  4.15786e-09 targ=  3.10154e-08 trig=  2.68575e-08
tphl                =  2.55687e-09 targ=  1.05129e-07 trig=  1.02573e-07
i_vdd_avg           =  -8.70083e-07 from=  1.00000e-08 to=  3.30003e-07
power_avg_uw        =  1.43210e+00


Total analysis time (seconds) = 1.51371

Total elapsed time (seconds) = 1.577 

Total DRAM available = 16384.000 MB.
DRAM currently available =  128.922 MB.
Maximum ngspice program size =   15.141 MB.
Current ngspice program size =   15.141 MB.

