
Note: No compatibility mode selected!


Circuit: GF180MCU library cell xor2_1 A1_to_Z__A2=0

Doing analysis at TEMP = 115.963920 and TNOM = 27.000000

Using SPARSE 1.3 as Direct Linear Solver

Initial Transient Solution
--------------------------

Node                                   Voltage
----                                   -------
vdd                                    1.70755
a1                                           0
a2                                           0
xu1.i                                  1.70754
z                                  5.39404e-08
xu1.net_0                          2.66243e-08
xu1.net_2                              1.70754
xu1.net_1                              0.56961
vfix_a2#branch                               0
vin#branch                                   0
vdd#branch                        -7.77286e-11

 Reference value :  4.87827e-08
 Reference value :  1.18083e-07
 Reference value :  1.90053e-07
 Reference value :  2.65568e-07
 Reference value :  3.37338e-07
No. of Data Rows : 68032

  Measurements for Transient Analysis

tplh                =  6.26549e-09 targ=  3.55181e-08 trig=  2.92526e-08
tphl                =  4.30596e-09 targ=  1.14064e-07 trig=  1.09758e-07
i_vdd_avg           =  -7.98133e-07 from=  1.00000e-08 to=  3.30003e-07
power_avg_uw        =  1.36285e+00


Total analysis time (seconds) = 1.51873

Total elapsed time (seconds) = 1.595 

Total DRAM available = 16384.000 MB.
DRAM currently available =  119.625 MB.
Maximum ngspice program size =   17.156 MB.
Current ngspice program size =   17.156 MB.

