
Note: No compatibility mode selected!


Circuit: GF180MCU library cell nand3_4 A1_to_ZN__A2=1,A3=1

Doing analysis at TEMP = 6.166596 and TNOM = 27.000000

Using SPARSE 1.3 as Direct Linear Solver

Initial Transient Solution
--------------------------

Node                                   Voltage
----                                   -------
vdd                                    1.81085
a1                                           0
a2                                     1.81085
a3                                     1.81085
xu1.net_1_3                        9.26455e-10
xu1.net_0                          1.85291e-09
xu1.net_1_2                        9.26455e-10
xu1.net_1_1                        9.26455e-10
xu1.net_1_0                        9.26455e-10
xu1.net_0_0                        1.85291e-09
zn                                     1.81085
vfix_a3#branch                               0
vfix_a2#branch                               0
vin#branch                                   0
vdd#branch                        -8.20936e-12

 Reference value :  2.78725e-08
 Reference value :  6.00492e-08
 Reference value :  8.84492e-08
 Reference value :  1.17716e-07
 Reference value :  1.49071e-07
 Reference value :  1.82426e-07
 Reference value :  2.14899e-07
 Reference value :  2.45739e-07
 Reference value :  2.73571e-07
 Reference value :  3.01596e-07
 Reference value :  3.30696e-07
No. of Data Rows : 68030

  Measurements for Transient Analysis

tphl                =  1.49250e-09 targ=  3.01058e-08 trig=  2.86133e-08
tplh                =  2.78964e-09 targ=  1.10630e-07 trig=  1.07840e-07
i_vdd_avg           =  -1.36837e-06 from=  1.00000e-08 to=  3.30001e-07
power_avg_uw        =  2.47791e+00


Total analysis time (seconds) = 3.90044

Total elapsed time (seconds) = 3.965 

Total DRAM available = 16384.000 MB.
DRAM currently available =   77.062 MB.
Maximum ngspice program size =   17.141 MB.
Current ngspice program size =   17.141 MB.

