
Note: No compatibility mode selected!


Circuit: GF180MCU library cell inv_4 I_to_ZN

Doing analysis at TEMP = 15.260082 and TNOM = 27.000000

Using SPARSE 1.3 as Direct Linear Solver

Initial Transient Solution
--------------------------

Node                                   Voltage
----                                   -------
vdd                                    1.66643
i                                            0
zn                                     1.66643
vin#branch                                   0
vdd#branch                         -6.7593e-12

 Reference value :  6.43627e-08
 Reference value :  1.60288e-07
 Reference value :  2.52928e-07
 Reference value :  3.38158e-07
No. of Data Rows : 68032

  Measurements for Transient Analysis

tphl                =  1.68448e-09 targ=  2.79646e-08 trig=  2.62801e-08
tplh                =  2.87527e-09 targ=  1.03716e-07 trig=  1.00840e-07
i_vdd_avg           =  -1.52837e-06 from=  1.00000e-08 to=  3.30003e-07
power_avg_uw        =  2.54691e+00


Total analysis time (seconds) = 1.28056

Total elapsed time (seconds) = 1.339 

Total DRAM available = 16384.000 MB.
DRAM currently available =  140.766 MB.
Maximum ngspice program size =   15.766 MB.
Current ngspice program size =   15.766 MB.

