
Note: No compatibility mode selected!


Circuit: GF180MCU library cell nand2_4 A1_to_ZN__A2=1

Doing analysis at TEMP = 57.866516 and TNOM = 27.000000

Using SPARSE 1.3 as Direct Linear Solver

Initial Transient Solution
--------------------------

Node                                   Voltage
----                                   -------
vdd                                    1.97992
a1                                           0
a2                                     1.97992
xu1.net_0_0                        1.60354e-10
zn                                     1.97992
xu1.net_0_1                        1.60354e-10
xu1.net_0_2                        1.60354e-10
xu1.net_0_3                        1.60354e-10
vfix_a2#branch                               0
vin#branch                                   0
vdd#branch                        -8.04418e-12

 Reference value :  4.20809e-08
 Reference value :  9.20659e-08
 Reference value :  1.41539e-07
 Reference value :  1.94228e-07
 Reference value :  2.43876e-07
 Reference value :  2.94394e-07
No. of Data Rows : 68034

  Measurements for Transient Analysis

tphl                =  1.43051e-09 targ=  3.14297e-08 trig=  2.99992e-08
tplh                =  3.03822e-09 targ=  1.15036e-07 trig=  1.11998e-07
i_vdd_avg           =  -4.59587e-07 from=  1.00000e-08 to=  3.30004e-07
power_avg_uw        =  9.09945e-01


Total analysis time (seconds) = 2.09571

Total elapsed time (seconds) = 2.155 

Total DRAM available = 16384.000 MB.
DRAM currently available =   92.562 MB.
Maximum ngspice program size =   16.703 MB.
Current ngspice program size =   16.703 MB.

