
Note: No compatibility mode selected!


Circuit: GF180MCU library cell nand2_1 A1_to_ZN__A2=1

Doing analysis at TEMP = -28.064241 and TNOM = 27.000000

Using SPARSE 1.3 as Direct Linear Solver

Initial Transient Solution
--------------------------

Node                                   Voltage
----                                   -------
vdd                                    1.86594
a1                                           0
a2                                     1.86594
xu1.net_0                          2.08187e-14
zn                                     1.86594
vfix_a2#branch                               0
vin#branch                                   0
vdd#branch                        -1.87595e-12

 Reference value :  1.26211e-07
 Reference value :  2.91826e-07
No. of Data Rows : 68030

  Measurements for Transient Analysis

tphl                =  6.71615e-09 targ=  3.60320e-08 trig=  2.93158e-08
tplh                =  9.58908e-09 targ=  1.19537e-07 trig=  1.09947e-07
i_vdd_avg           =  -1.37444e-06 from=  1.00000e-08 to=  3.30001e-07
power_avg_uw        =  2.56462e+00


Total analysis time (seconds) = 0.65986

Total elapsed time (seconds) = 0.724 

Total DRAM available = 16384.000 MB.
DRAM currently available =  183.672 MB.
Maximum ngspice program size =   19.078 MB.
Current ngspice program size =   19.078 MB.

