
Note: No compatibility mode selected!


Circuit: GF180MCU library cell inv_4 I_to_ZN

Doing analysis at TEMP = 111.105130 and TNOM = 27.000000

Using SPARSE 1.3 as Direct Linear Solver

Initial Transient Solution
--------------------------

Node                                   Voltage
----                                   -------
vdd                                    1.83955
i                                            0
zn                                     1.83955
vin#branch                                   0
vdd#branch                        -9.91752e-12

 Reference value :  6.79400e-08
 Reference value :  1.68632e-07
 Reference value :  2.72330e-07
No. of Data Rows : 68030

  Measurements for Transient Analysis

tphl                =  2.44645e-09 targ=  3.22027e-08 trig=  2.97562e-08
tplh                =  4.58680e-09 targ=  1.15855e-07 trig=  1.11269e-07
i_vdd_avg           =  -1.08240e-06 from=  1.00000e-08 to=  3.30002e-07
power_avg_uw        =  1.99113e+00


Total analysis time (seconds) = 1.0874

Total elapsed time (seconds) = 1.145 

Total DRAM available = 16384.000 MB.
DRAM currently available =   79.422 MB.
Maximum ngspice program size =   16.281 MB.
Current ngspice program size =   16.281 MB.

