
Note: No compatibility mode selected!


Circuit: GF180MCU library cell nor2_1 A1_to_ZN__A2=0

Doing analysis at TEMP = 112.938220 and TNOM = 27.000000

Using SPARSE 1.3 as Direct Linear Solver

Initial Transient Solution
--------------------------

Node                                   Voltage
----                                   -------
vdd                                    1.85403
a1                                           0
a2                                           0
zn                                     1.85403
xu1.net_0                              1.85403
vfix_a2#branch                               0
vin#branch                                   0
vdd#branch                        -5.16442e-12

 Reference value :  1.24678e-07
 Reference value :  2.72463e-07
No. of Data Rows : 68032

  Measurements for Transient Analysis

tphl                =  3.77871e-09 targ=  2.88887e-08 trig=  2.51100e-08
tplh                =  1.21458e-08 targ=  1.09476e-07 trig=  9.73301e-08
i_vdd_avg           =  -1.14964e-06 from=  1.00000e-08 to=  3.30003e-07
power_avg_uw        =  2.13146e+00


Total analysis time (seconds) = 0.713017

Total elapsed time (seconds) = 0.771 

Total DRAM available = 16384.000 MB.
DRAM currently available =   93.203 MB.
Maximum ngspice program size =   16.719 MB.
Current ngspice program size =   16.719 MB.

