
Note: No compatibility mode selected!


Circuit: GF180MCU library cell nor2_4 A1_to_ZN__A2=0

Doing analysis at TEMP = 26.962387 and TNOM = 27.000000

Using SPARSE 1.3 as Direct Linear Solver

Initial Transient Solution
--------------------------

Node                                   Voltage
----                                   -------
vdd                                    1.97015
a1                                           0
a2                                           0
zn                                     1.97015
xu1.net_0_0                            1.97015
xu1.net_0_1                            1.97015
xu1.net_0_2                            1.97015
xu1.net_0_3                            1.97015
vfix_a2#branch                               0
vin#branch                                   0
vdd#branch                        -1.58561e-11

 Reference value :  3.12557e-08
 Reference value :  8.03907e-08
 Reference value :  1.30329e-07
 Reference value :  1.79919e-07
 Reference value :  2.28456e-07
 Reference value :  2.74704e-07
 Reference value :  3.20799e-07
No. of Data Rows : 68034

  Measurements for Transient Analysis

tphl                =  2.64873e-09 targ=  2.94378e-08 trig=  2.67891e-08
tplh                =  5.70905e-09 targ=  1.08076e-07 trig=  1.02367e-07
i_vdd_avg           =  -2.21086e-06 from=  1.00000e-08 to=  3.30004e-07
power_avg_uw        =  4.35571e+00


Total analysis time (seconds) = 2.33022

Total elapsed time (seconds) = 2.425 

Total DRAM available = 16384.000 MB.
DRAM currently available =   99.078 MB.
Maximum ngspice program size =   18.375 MB.
Current ngspice program size =   18.375 MB.

