
Note: No compatibility mode selected!


Circuit: GF180MCU library cell nor2_4 A1_to_ZN__A2=0

Doing analysis at TEMP = 59.483297 and TNOM = 27.000000

Using SPARSE 1.3 as Direct Linear Solver

Initial Transient Solution
--------------------------

Node                                   Voltage
----                                   -------
vdd                                    1.72107
a1                                           0
a2                                           0
zn                                     1.72107
xu1.net_0_0                            1.72107
xu1.net_0_1                            1.72107
xu1.net_0_2                            1.72107
xu1.net_0_3                            1.72107
vfix_a2#branch                               0
vin#branch                                   0
vdd#branch                        -1.73822e-11

 Reference value :  3.25475e-08
 Reference value :  8.09090e-08
 Reference value :  1.33075e-07
 Reference value :  1.81575e-07
 Reference value :  2.31164e-07
 Reference value :  2.75259e-07
 Reference value :  3.22915e-07
No. of Data Rows : 68030

  Measurements for Transient Analysis

tphl                =  2.40594e-09 targ=  3.17792e-08 trig=  2.93732e-08
tplh                =  5.22153e-09 targ=  1.15341e-07 trig=  1.10120e-07
i_vdd_avg           =  -1.29676e-06 from=  1.00000e-08 to=  3.30000e-07
power_avg_uw        =  2.23182e+00


Total analysis time (seconds) = 2.28989

Total elapsed time (seconds) = 2.355 

Total DRAM available = 16384.000 MB.
DRAM currently available =  127.234 MB.
Maximum ngspice program size =   15.094 MB.
Current ngspice program size =   15.094 MB.

