
Note: No compatibility mode selected!


Circuit: GF180MCU library cell xor2_1 A1_to_Z__A2=0

Doing analysis at TEMP = 90.898701 and TNOM = 27.000000

Using SPARSE 1.3 as Direct Linear Solver

Initial Transient Solution
--------------------------

Node                                   Voltage
----                                   -------
vdd                                    1.63947
a1                                           0
a2                                           0
xu1.i                                  1.63946
z                                  4.14326e-08
xu1.net_0                          2.06514e-08
xu1.net_2                              1.63946
xu1.net_1                             0.496677
vfix_a2#branch                               0
vin#branch                                   0
vdd#branch                         -2.3223e-10

 Reference value :  4.42837e-08
 Reference value :  1.17455e-07
 Reference value :  1.90573e-07
 Reference value :  2.64794e-07
 Reference value :  3.35200e-07
No. of Data Rows : 68032

  Measurements for Transient Analysis

tplh                =  9.38252e-09 targ=  3.89156e-08 trig=  2.95331e-08
tphl                =  4.66609e-09 targ=  1.15265e-07 trig=  1.10599e-07
i_vdd_avg           =  -1.80767e-06 from=  1.00000e-08 to=  3.30005e-07
power_avg_uw        =  2.96362e+00


Total analysis time (seconds) = 1.56956

Total elapsed time (seconds) = 1.664 

Total DRAM available = 16384.000 MB.
DRAM currently available =   98.766 MB.
Maximum ngspice program size =   17.047 MB.
Current ngspice program size =   17.047 MB.

