
Note: No compatibility mode selected!


Circuit: GF180MCU library cell inv_1 I_to_ZN

Doing analysis at TEMP = 52.419574 and TNOM = 27.000000

Using SPARSE 1.3 as Direct Linear Solver

Initial Transient Solution
--------------------------

Node                                   Voltage
----                                   -------
vdd                                    1.91584
i                                            0
zn                                     1.91584
vin#branch                                   0
vdd#branch                        -1.93944e-12

 Reference value :  2.26153e-07
No. of Data Rows : 68032

  Measurements for Transient Analysis

tphl                =  4.03503e-09 targ=  3.31653e-08 trig=  2.91302e-08
tplh                =  6.72088e-09 targ=  1.16112e-07 trig=  1.09391e-07
i_vdd_avg           =  -8.71979e-07 from=  1.00000e-08 to=  3.30003e-07
power_avg_uw        =  1.67057e+00


Total analysis time (seconds) = 0.387902

Total elapsed time (seconds) = 0.442 

Total DRAM available = 16384.000 MB.
DRAM currently available =  109.594 MB.
Maximum ngspice program size =   16.203 MB.
Current ngspice program size =   16.203 MB.

