
Note: No compatibility mode selected!


Circuit: GF180MCU library cell nand2_1 A1_to_ZN__A2=1

Doing analysis at TEMP = 123.785220 and TNOM = 27.000000

Using SPARSE 1.3 as Direct Linear Solver

Initial Transient Solution
--------------------------

Node                                   Voltage
----                                   -------
vdd                                    1.92577
a1                                           0
a2                                     1.92577
xu1.net_0                          1.18722e-06
zn                                     1.92577
vfix_a2#branch                               0
vin#branch                                   0
vdd#branch                        -2.36489e-10

 Reference value :  1.17659e-07
 Reference value :  2.78835e-07
No. of Data Rows : 68032

  Measurements for Transient Analysis

tphl                =  1.68134e-09 targ=  3.16770e-08 trig=  2.99956e-08
tplh                =  3.42858e-09 targ=  1.15415e-07 trig=  1.11987e-07
i_vdd_avg           =  -6.67204e-07 from=  1.00000e-08 to=  3.30005e-07
power_avg_uw        =  1.28488e+00


Total analysis time (seconds) = 0.678589

Total elapsed time (seconds) = 0.776 

Total DRAM available = 16384.000 MB.
DRAM currently available =  119.094 MB.
Maximum ngspice program size =   17.859 MB.
Current ngspice program size =   17.859 MB.

