
Note: No compatibility mode selected!


Circuit: GF180MCU library cell nand3_1 A1_to_ZN__A2=1,A3=1

Doing analysis at TEMP = 90.149805 and TNOM = 27.000000

Using SPARSE 1.3 as Direct Linear Solver

Initial Transient Solution
--------------------------

Node                                   Voltage
----                                   -------
vdd                                    1.69531
a1                                           0
a2                                     1.69531
a3                                     1.69531
xu1.net_1                          2.50943e-07
xu1.net_0                          5.01885e-07
zn                                     1.69531
vfix_a3#branch                               0
vfix_a2#branch                               0
vin#branch                                   0
vdd#branch                        -4.84755e-11

 Reference value :  8.29343e-08
 Reference value :  1.92374e-07
 Reference value :  2.93536e-07
No. of Data Rows : 68030

  Measurements for Transient Analysis

tphl                =  2.43788e-09 targ=  2.84438e-08 trig=  2.60059e-08
tplh                =  2.94271e-09 targ=  1.02960e-07 trig=  1.00018e-07
i_vdd_avg           =  -6.45871e-07 from=  1.00000e-08 to=  3.30001e-07
power_avg_uw        =  1.09495e+00


Total analysis time (seconds) = 1.03349

Total elapsed time (seconds) = 1.100 

Total DRAM available = 16384.000 MB.
DRAM currently available =  114.172 MB.
Maximum ngspice program size =   15.844 MB.
Current ngspice program size =   15.844 MB.

