
Note: No compatibility mode selected!


Circuit: GF180MCU library cell nor2_1 A1_to_ZN__A2=0

Doing analysis at TEMP = 118.008530 and TNOM = 27.000000

Using SPARSE 1.3 as Direct Linear Solver

Initial Transient Solution
--------------------------

Node                                   Voltage
----                                   -------
vdd                                    1.80756
a1                                           0
a2                                           0
zn                                     1.80756
xu1.net_0                              1.80756
vfix_a2#branch                               0
vin#branch                                   0
vdd#branch                        -2.76626e-11

 Reference value :  1.07267e-07
 Reference value :  2.58737e-07
No. of Data Rows : 68032

  Measurements for Transient Analysis

tphl                =  6.37263e-09 targ=  3.53798e-08 trig=  2.90072e-08
tplh                =  1.66194e-08 targ=  1.25641e-07 trig=  1.09022e-07
i_vdd_avg           =  -2.14112e-06 from=  1.00000e-08 to=  3.30001e-07
power_avg_uw        =  3.87022e+00


Total analysis time (seconds) = 0.741144

Total elapsed time (seconds) = 0.807 

Total DRAM available = 16384.000 MB.
DRAM currently available =   84.797 MB.
Maximum ngspice program size =   16.625 MB.
Current ngspice program size =   16.625 MB.

