
Note: No compatibility mode selected!


Circuit: GF180MCU library cell nand3_4 A1_to_ZN__A2=1,A3=1

Doing analysis at TEMP = 3.892064 and TNOM = 27.000000

Using SPARSE 1.3 as Direct Linear Solver

Initial Transient Solution
--------------------------

Node                                   Voltage
----                                   -------
vdd                                    1.97597
a1                                           0
a2                                     1.97597
a3                                     1.97597
xu1.net_1_3                        2.54392e-11
xu1.net_0                          5.08783e-11
xu1.net_1_2                        2.54392e-11
xu1.net_1_1                        2.54392e-11
xu1.net_1_0                        2.54393e-11
xu1.net_0_0                        5.08785e-11
zn                                     1.97597
vfix_a3#branch                               0
vfix_a2#branch                               0
vin#branch                                   0
vdd#branch                        -7.96549e-12

 Reference value :  2.69175e-08
 Reference value :  5.77136e-08
 Reference value :  8.78986e-08
 Reference value :  1.18810e-07
 Reference value :  1.46055e-07
 Reference value :  1.77595e-07
 Reference value :  2.07684e-07
 Reference value :  2.38474e-07
 Reference value :  2.68675e-07
 Reference value :  2.99525e-07
 Reference value :  3.28295e-07
No. of Data Rows : 68032

  Measurements for Transient Analysis

tphl                =  1.23955e-09 targ=  2.69526e-08 trig=  2.57130e-08
tplh                =  1.67678e-09 targ=  1.00816e-07 trig=  9.91391e-08
i_vdd_avg           =  -1.03660e-06 from=  1.00000e-08 to=  3.30005e-07
power_avg_uw        =  2.04828e+00


Total analysis time (seconds) = 3.89921

Total elapsed time (seconds) = 3.982 

Total DRAM available = 16384.000 MB.
DRAM currently available =   77.062 MB.
Maximum ngspice program size =   16.734 MB.
Current ngspice program size =   16.734 MB.

