
Note: No compatibility mode selected!


Circuit: GF180MCU library cell nor2_4 A1_to_ZN__A2=0

Doing analysis at TEMP = 37.621791 and TNOM = 27.000000

Using SPARSE 1.3 as Direct Linear Solver

Initial Transient Solution
--------------------------

Node                                   Voltage
----                                   -------
vdd                                    1.76932
a1                                           0
a2                                           0
zn                                     1.76932
xu1.net_0_0                            1.76932
xu1.net_0_1                            1.76932
xu1.net_0_2                            1.76932
xu1.net_0_3                            1.76932
vfix_a2#branch                               0
vin#branch                                   0
vdd#branch                        -1.50126e-11

 Reference value :  3.96965e-08
 Reference value :  8.44915e-08
 Reference value :  1.28940e-07
 Reference value :  1.77740e-07
 Reference value :  2.26086e-07
 Reference value :  2.72041e-07
 Reference value :  3.18890e-07
No. of Data Rows : 68032

  Measurements for Transient Analysis

tphl                =  2.11025e-09 targ=  3.09872e-08 trig=  2.88770e-08
tplh                =  4.59575e-09 targ=  1.13227e-07 trig=  1.08631e-07
i_vdd_avg           =  -1.22320e-06 from=  1.00000e-08 to=  3.30000e-07
power_avg_uw        =  2.16422e+00


Total analysis time (seconds) = 2.33917

Total elapsed time (seconds) = 2.395 

Total DRAM available = 16384.000 MB.
DRAM currently available =  128.938 MB.
Maximum ngspice program size =   13.000 MB.
Current ngspice program size =   13.000 MB.

