
Note: No compatibility mode selected!


Circuit: GF180MCU library cell nand2_1 A1_to_ZN__A2=1

Doing analysis at TEMP = 37.940086 and TNOM = 27.000000

Using SPARSE 1.3 as Direct Linear Solver

Initial Transient Solution
--------------------------

Node                                   Voltage
----                                   -------
vdd                                    1.79275
a1                                           0
a2                                     1.79275
xu1.net_0                          3.30786e-11
zn                                     1.79275
vfix_a2#branch                               0
vin#branch                                   0
vdd#branch                        -1.80674e-12

 Reference value :  1.21698e-07
 Reference value :  2.87103e-07
No. of Data Rows : 68032

  Measurements for Transient Analysis

tphl                =  5.32518e-09 targ=  3.08703e-08 trig=  2.55451e-08
tplh                =  7.90881e-09 targ=  1.06544e-07 trig=  9.86352e-08
i_vdd_avg           =  -1.24887e-06 from=  1.00000e-08 to=  3.30003e-07
power_avg_uw        =  2.23892e+00


Total analysis time (seconds) = 0.672117

Total elapsed time (seconds) = 0.734 

Total DRAM available = 16384.000 MB.
DRAM currently available =  120.531 MB.
Maximum ngspice program size =   16.406 MB.
Current ngspice program size =   16.406 MB.

