
Note: No compatibility mode selected!


Circuit: GF180MCU library cell nor2_4 A1_to_ZN__A2=0

Doing analysis at TEMP = 113.197340 and TNOM = 27.000000

Using SPARSE 1.3 as Direct Linear Solver

Initial Transient Solution
--------------------------

Node                                   Voltage
----                                   -------
vdd                                    1.87808
a1                                           0
a2                                           0
zn                                     1.87807
xu1.net_0_0                            1.87808
xu1.net_0_1                            1.87808
xu1.net_0_2                            1.87808
xu1.net_0_3                            1.87808
vfix_a2#branch                               0
vin#branch                                   0
vdd#branch                        -1.14609e-09

 Reference value :  3.80127e-08
 Reference value :  8.16127e-08
 Reference value :  1.30523e-07
 Reference value :  1.79308e-07
 Reference value :  2.25138e-07
 Reference value :  2.71993e-07
 Reference value :  3.18658e-07
No. of Data Rows : 68032

  Measurements for Transient Analysis

tphl                =  1.72665e-10 targ=  2.46677e-08 trig=  2.44951e-08
tplh                =  4.24882e-10 targ=  9.59101e-08 trig=  9.54852e-08
i_vdd_avg           =  -2.40408e-07 from=  1.00000e-08 to=  3.30003e-07
power_avg_uw        =  4.51506e-01


Total analysis time (seconds) = 2.357

Total elapsed time (seconds) = 2.420 

Total DRAM available = 16384.000 MB.
DRAM currently available =   80.594 MB.
Maximum ngspice program size =   14.766 MB.
Current ngspice program size =   14.766 MB.

