
Note: No compatibility mode selected!


Circuit: GF180MCU library cell xor2_1 A1_to_Z__A2=0

Doing analysis at TEMP = -23.781924 and TNOM = 27.000000

Using SPARSE 1.3 as Direct Linear Solver

Initial Transient Solution
--------------------------

Node                                   Voltage
----                                   -------
vdd                                     1.9748
a1                                           0
a2                                           0
xu1.i                                   1.9748
z                                  2.52548e-08
xu1.net_0                          8.83616e-10
xu1.net_2                               1.9748
xu1.net_1                              0.77231
vfix_a2#branch                               0
vin#branch                                   0
vdd#branch                         -1.1738e-11

 Reference value :  4.32383e-08
 Reference value :  1.12593e-07
 Reference value :  1.86593e-07
 Reference value :  2.57503e-07
 Reference value :  3.34209e-07
No. of Data Rows : 68032

  Measurements for Transient Analysis

tplh                =  5.69839e-09 targ=  3.55438e-08 trig=  2.98454e-08
tphl                =  3.72300e-09 targ=  1.15259e-07 trig=  1.11536e-07
i_vdd_avg           =  -2.34282e-06 from=  1.00000e-08 to=  3.30004e-07
power_avg_uw        =  4.62661e+00


Total analysis time (seconds) = 1.56425

Total elapsed time (seconds) = 1.644 

Total DRAM available = 16384.000 MB.
DRAM currently available =  128.922 MB.
Maximum ngspice program size =   17.594 MB.
Current ngspice program size =   17.594 MB.

