
Note: No compatibility mode selected!


Circuit: GF180MCU library cell nor2_1 A1_to_ZN__A2=0

Doing analysis at TEMP = 52.165564 and TNOM = 27.000000

Using SPARSE 1.3 as Direct Linear Solver

Initial Transient Solution
--------------------------

Node                                   Voltage
----                                   -------
vdd                                    1.70476
a1                                           0
a2                                           0
zn                                     1.70476
xu1.net_0                              1.70476
vfix_a2#branch                               0
vin#branch                                   0
vdd#branch                        -3.96596e-12

 Reference value :  1.08086e-07
 Reference value :  2.50341e-07
No. of Data Rows : 68032

  Measurements for Transient Analysis

tphl                =  4.06126e-09 targ=  3.37833e-08 trig=  2.97220e-08
tplh                =  8.58827e-09 targ=  1.19754e-07 trig=  1.11166e-07
i_vdd_avg           =  -7.30406e-07 from=  1.00000e-08 to=  3.30000e-07
power_avg_uw        =  1.24517e+00


Total analysis time (seconds) = 0.781108

Total elapsed time (seconds) = 0.862 

Total DRAM available = 16384.000 MB.
DRAM currently available =   93.203 MB.
Maximum ngspice program size =   18.641 MB.
Current ngspice program size =   18.641 MB.

