
Note: No compatibility mode selected!


Circuit: GF180MCU library cell aoi21_4 A1_to_ZN__A2=1,B=0

Doing analysis at TEMP = -32.551337 and TNOM = 27.000000

Using SPARSE 1.3 as Direct Linear Solver

Initial Transient Solution
--------------------------

Node                                   Voltage
----                                   -------
vdd                                    1.70356
a1                                           0
a2                                     1.70356
b                                            0
xu1.net_0_0                        1.18789e-14
zn                                     1.70356
xu1.net_0_1                        8.85851e-15
xu1.net_0_2                        1.18789e-14
xu1.net_0_3                        8.85851e-15
xu1.net_1                              1.70356
vfix_b#branch                                0
vfix_a2#branch                               0
vin#branch                                   0
vdd#branch                        -1.37085e-11

 Reference value :  2.61225e-08
 Reference value :  5.75156e-08
 Reference value :  8.87356e-08
 Reference value :  1.21139e-07
 Reference value :  1.51939e-07
 Reference value :  1.83739e-07
 Reference value :  2.14981e-07
 Reference value :  2.43126e-07
 Reference value :  2.72806e-07
 Reference value :  3.04014e-07
 Reference value :  3.32869e-07
No. of Data Rows : 68034

  Measurements for Transient Analysis

tphl                =  4.70809e-09 targ=  3.34921e-08 trig=  2.87840e-08
tplh                =  9.70480e-09 targ=  1.18057e-07 trig=  1.08352e-07
i_vdd_avg           =  -2.07167e-06 from=  1.00000e-08 to=  3.30004e-07
power_avg_uw        =  3.52921e+00


Total analysis time (seconds) = 3.50723

Total elapsed time (seconds) = 3.565 

Total DRAM available = 16384.000 MB.
DRAM currently available =  117.125 MB.
Maximum ngspice program size =   13.391 MB.
Current ngspice program size =   13.391 MB.

