
Note: No compatibility mode selected!


Circuit: GF180MCU library cell nor2_1 A1_to_ZN__A2=0

Doing analysis at TEMP = 82.318487 and TNOM = 27.000000

Using SPARSE 1.3 as Direct Linear Solver

Initial Transient Solution
--------------------------

Node                                   Voltage
----                                   -------
vdd                                      1.643
a1                                           0
a2                                           0
zn                                       1.643
xu1.net_0                                1.643
vfix_a2#branch                               0
vin#branch                                   0
vdd#branch                          -6.391e-11

 Reference value :  1.10659e-07
 Reference value :  2.64554e-07
No. of Data Rows : 68032

  Measurements for Transient Analysis

tphl                =  1.80934e-09 targ=  2.71372e-08 trig=  2.53279e-08
tplh                =  4.97777e-09 targ=  1.02961e-07 trig=  9.79836e-08
i_vdd_avg           =  -8.07350e-07 from=  1.00000e-08 to=  3.30004e-07
power_avg_uw        =  1.32647e+00


Total analysis time (seconds) = 0.754866

Total elapsed time (seconds) = 0.820 

Total DRAM available = 16384.000 MB.
DRAM currently available =   93.203 MB.
Maximum ngspice program size =   17.062 MB.
Current ngspice program size =   17.062 MB.

