
Note: No compatibility mode selected!


Circuit: GF180MCU library cell mux2_4 I0_to_Z__I1=0,S=0

Doing analysis at TEMP = 2.710765 and TNOM = 27.000000

Using SPARSE 1.3 as Direct Linear Solver

Initial Transient Solution
--------------------------

Node                                   Voltage
----                                   -------
vdd                                    1.95824
i0                                           0
i1                                           0
s                                            0
xu1.int04                              1.95824
z                                  1.33967e-08
xu1.net_1                           5.1712e-05
xu1.net_3                              1.18263
xu1.sel1_n                             1.95824
xu1.net_0                              1.95824
xu1.net_2                              1.95824
vfix_s#branch                                0
vfix_i1#branch                               0
vin#branch                                   0
vdd#branch                        -1.64947e-11

 Reference value :  2.47475e-08
 Reference value :  6.45128e-08
 Reference value :  1.03133e-07
 Reference value :  1.41938e-07
 Reference value :  1.81978e-07
 Reference value :  2.15423e-07
 Reference value :  2.54438e-07
 Reference value :  2.94903e-07
 Reference value :  3.34778e-07
No. of Data Rows : 68032

  Measurements for Transient Analysis

tplh                =  1.98125e-09 targ=  2.63689e-08 trig=  2.43876e-08
tphl                =  2.62604e-09 targ=  9.77890e-08 trig=  9.51629e-08
i_vdd_avg           =  -1.24790e-06 from=  1.00000e-08 to=  3.30003e-07
power_avg_uw        =  2.44368e+00


Total analysis time (seconds) = 2.8477

Total elapsed time (seconds) = 2.918 

Total DRAM available = 16384.000 MB.
DRAM currently available =   87.297 MB.
Maximum ngspice program size =   16.844 MB.
Current ngspice program size =   16.844 MB.

