
Note: No compatibility mode selected!


Circuit: GF180MCU library cell xor2_1 A1_to_Z__A2=0

Doing analysis at TEMP = 76.581856 and TNOM = 27.000000

Using SPARSE 1.3 as Direct Linear Solver

Initial Transient Solution
--------------------------

Node                                   Voltage
----                                   -------
vdd                                    1.81833
a1                                           0
a2                                           0
xu1.i                                  1.81832
z                                  4.58755e-08
xu1.net_0                          2.06939e-08
xu1.net_2                              1.81833
xu1.net_1                             0.664137
vfix_a2#branch                               0
vin#branch                                   0
vdd#branch                        -2.11426e-11

 Reference value :  4.42986e-08
 Reference value :  1.19190e-07
 Reference value :  1.93333e-07
 Reference value :  2.67404e-07
No. of Data Rows : 68032

  Measurements for Transient Analysis

tplh                =  1.48541e-08 targ=  4.37997e-08 trig=  2.89455e-08
tphl                =  5.79246e-09 targ=  1.14629e-07 trig=  1.08837e-07
i_vdd_avg           =  -2.35212e-06 from=  1.00000e-08 to=  3.30005e-07
power_avg_uw        =  4.27691e+00


Total analysis time (seconds) = 1.48937

Total elapsed time (seconds) = 1.559 

Total DRAM available = 16384.000 MB.
DRAM currently available =  130.047 MB.
Maximum ngspice program size =   18.016 MB.
Current ngspice program size =   18.016 MB.

