
Note: No compatibility mode selected!


Circuit: GF180MCU library cell mux2_4 I0_to_Z__I1=0,S=0

Doing analysis at TEMP = 111.559180 and TNOM = 27.000000

Using SPARSE 1.3 as Direct Linear Solver

Initial Transient Solution
--------------------------

Node                                   Voltage
----                                   -------
vdd                                    1.67343
i0                                           0
i1                                           0
s                                            0
xu1.int04                              1.67342
z                                   1.5103e-08
xu1.net_1                            0.0450934
xu1.net_3                              1.21118
xu1.sel1_n                             1.67343
xu1.net_0                              1.67343
xu1.net_2                              1.67342
vfix_s#branch                                0
vfix_i1#branch                               0
vin#branch                                   0
vdd#branch                        -3.21839e-11

 Reference value :  3.62944e-08
 Reference value :  8.00494e-08
 Reference value :  1.20731e-07
 Reference value :  1.57916e-07
 Reference value :  1.98349e-07
 Reference value :  2.38114e-07
 Reference value :  2.75369e-07
 Reference value :  3.16511e-07
No. of Data Rows : 68030

  Measurements for Transient Analysis

tplh                =  2.02968e-09 targ=  3.19381e-08 trig=  2.99084e-08
tphl                =  3.86544e-09 targ=  1.15591e-07 trig=  1.11725e-07
i_vdd_avg           =  -3.07535e-07 from=  1.00000e-08 to=  3.30001e-07
power_avg_uw        =  5.14638e-01


Total analysis time (seconds) = 2.7259

Total elapsed time (seconds) = 2.794 

Total DRAM available = 16384.000 MB.
DRAM currently available =   75.609 MB.
Maximum ngspice program size =   14.984 MB.
Current ngspice program size =   14.984 MB.

