
Note: No compatibility mode selected!


Circuit: GF180MCU library cell nor2_4 A1_to_ZN__A2=0

Doing analysis at TEMP = 54.626765 and TNOM = 27.000000

Using SPARSE 1.3 as Direct Linear Solver

Initial Transient Solution
--------------------------

Node                                   Voltage
----                                   -------
vdd                                    1.83972
a1                                           0
a2                                           0
zn                                     1.83972
xu1.net_0_0                            1.83972
xu1.net_0_1                            1.83972
xu1.net_0_2                            1.83972
xu1.net_0_3                            1.83972
vfix_a2#branch                               0
vin#branch                                   0
vdd#branch                        -1.74976e-11

 Reference value :  2.85161e-08
 Reference value :  7.38861e-08
 Reference value :  1.18555e-07
 Reference value :  1.65070e-07
 Reference value :  2.10326e-07
 Reference value :  2.61075e-07
 Reference value :  3.04025e-07
No. of Data Rows : 68034

  Measurements for Transient Analysis

tphl                =  8.50468e-10 targ=  2.59923e-08 trig=  2.51418e-08
tplh                =  1.77611e-09 targ=  9.92015e-08 trig=  9.74254e-08
i_vdd_avg           =  -8.05304e-07 from=  1.00000e-08 to=  3.30005e-07
power_avg_uw        =  1.48154e+00


Total analysis time (seconds) = 2.55296

Total elapsed time (seconds) = 2.617 

Total DRAM available = 16384.000 MB.
DRAM currently available =   92.250 MB.
Maximum ngspice program size =   14.125 MB.
Current ngspice program size =   14.125 MB.

