
Note: No compatibility mode selected!


Circuit: GF180MCU library cell nand3_1 A1_to_ZN__A2=1,A3=1

Doing analysis at TEMP = 22.876836 and TNOM = 27.000000

Using SPARSE 1.3 as Direct Linear Solver

Initial Transient Solution
--------------------------

Node                                   Voltage
----                                   -------
vdd                                    1.73265
a1                                           0
a2                                     1.73265
a3                                     1.73265
xu1.net_1                            3.649e-09
xu1.net_0                          7.29799e-09
zn                                     1.73265
vfix_a3#branch                               0
vfix_a2#branch                               0
vin#branch                                   0
vdd#branch                        -2.56902e-12

 Reference value :  8.73620e-08
 Reference value :  1.87892e-07
 Reference value :  2.97726e-07
No. of Data Rows : 68032

  Measurements for Transient Analysis

tphl                =  4.04927e-09 targ=  2.92690e-08 trig=  2.52197e-08
tplh                =  4.70508e-09 targ=  1.02364e-07 trig=  9.76592e-08
i_vdd_avg           =  -1.53950e-06 from=  1.00000e-08 to=  3.30001e-07
power_avg_uw        =  2.66742e+00


Total analysis time (seconds) = 1.01773

Total elapsed time (seconds) = 1.093 

Total DRAM available = 16384.000 MB.
DRAM currently available =  114.172 MB.
Maximum ngspice program size =   13.500 MB.
Current ngspice program size =   13.453 MB.

