
Note: No compatibility mode selected!


Circuit: GF180MCU library cell nand3_1 A1_to_ZN__A2=1,A3=1

Doing analysis at TEMP = 115.043520 and TNOM = 27.000000

Using SPARSE 1.3 as Direct Linear Solver

Initial Transient Solution
--------------------------

Node                                   Voltage
----                                   -------
vdd                                    1.94673
a1                                           0
a2                                     1.94673
a3                                     1.94673
xu1.net_1                           7.3233e-09
xu1.net_0                          1.46466e-08
zn                                     1.94673
vfix_a3#branch                               0
vfix_a2#branch                               0
vin#branch                                   0
vdd#branch                        -2.77076e-12

 Reference value :  8.88805e-08
 Reference value :  1.94465e-07
 Reference value :  2.90448e-07
No. of Data Rows : 68034

  Measurements for Transient Analysis

tphl                =  1.98569e-09 targ=  3.04722e-08 trig=  2.84865e-08
tplh                =  3.09626e-09 targ=  1.10556e-07 trig=  1.07459e-07
i_vdd_avg           =  -1.56984e-07 from=  1.00000e-08 to=  3.30003e-07
power_avg_uw        =  3.05605e-01


Total analysis time (seconds) = 1.04069

Total elapsed time (seconds) = 1.109 

Total DRAM available = 16384.000 MB.
DRAM currently available =  114.172 MB.
Maximum ngspice program size =   17.188 MB.
Current ngspice program size =   17.188 MB.

