
Note: No compatibility mode selected!


Circuit: GF180MCU library cell oai21_1 A1_to_ZN__A2=0,B=1

Doing analysis at TEMP = 48.239016 and TNOM = 27.000000

Using SPARSE 1.3 as Direct Linear Solver

Initial Transient Solution
--------------------------

Node                                   Voltage
----                                   -------
vdd                                    1.84441
a1                                           0
a2                                           0
b                                      1.84441
zn                                     1.84441
xu1.net_0                          2.36602e-09
xu1.net_1                              1.84441
vfix_b#branch                                0
vfix_a2#branch                               0
vin#branch                                   0
vdd#branch                        -4.11388e-12

 Reference value :  7.35421e-08
 Reference value :  1.75942e-07
 Reference value :  2.81362e-07
No. of Data Rows : 68032

  Measurements for Transient Analysis

tphl                =  1.72178e-09 targ=  2.77516e-08 trig=  2.60298e-08
tplh                =  3.39795e-09 targ=  1.03487e-07 trig=  1.00089e-07
i_vdd_avg           =  -4.03306e-07 from=  1.00000e-08 to=  3.30002e-07
power_avg_uw        =  7.43860e-01


Total analysis time (seconds) = 1.12148

Total elapsed time (seconds) = 1.190 

Total DRAM available = 16384.000 MB.
DRAM currently available =  120.594 MB.
Maximum ngspice program size =   17.297 MB.
Current ngspice program size =   17.297 MB.

