
Note: No compatibility mode selected!


Circuit: GF180MCU library cell aoi21_4 A1_to_ZN__A2=1,B=0

Doing analysis at TEMP = 53.729010 and TNOM = 27.000000

Using SPARSE 1.3 as Direct Linear Solver

Initial Transient Solution
--------------------------

Node                                   Voltage
----                                   -------
vdd                                    1.72606
a1                                           0
a2                                     1.72606
b                                            0
xu1.net_0_0                         3.1356e-08
zn                                     1.72606
xu1.net_0_1                         3.1356e-08
xu1.net_0_2                         3.1356e-08
xu1.net_0_3                         3.1356e-08
xu1.net_1                              1.72606
vfix_b#branch                                0
vfix_a2#branch                               0
vin#branch                                   0
vdd#branch                         -6.9001e-11

 Reference value :  2.14414e-08
 Reference value :  5.15642e-08
 Reference value :  8.41492e-08
 Reference value :  1.16516e-07
 Reference value :  1.49076e-07
 Reference value :  1.82071e-07
 Reference value :  2.13039e-07
 Reference value :  2.46009e-07
 Reference value :  2.74111e-07
 Reference value :  3.03126e-07
 Reference value :  3.34526e-07
No. of Data Rows : 68030

  Measurements for Transient Analysis

tphl                =  9.86079e-10 targ=  2.81769e-08 trig=  2.71908e-08
tplh                =  2.52029e-09 targ=  1.06093e-07 trig=  1.03572e-07
i_vdd_avg           =  -9.77087e-07 from=  1.00000e-08 to=  3.30001e-07
power_avg_uw        =  1.68651e+00


Total analysis time (seconds) = 3.46079

Total elapsed time (seconds) = 3.529 

Total DRAM available = 16384.000 MB.
DRAM currently available =  119.516 MB.
Maximum ngspice program size =   13.781 MB.
Current ngspice program size =   13.781 MB.

