
Note: No compatibility mode selected!


Circuit: GF180MCU library cell oai21_4 A1_to_ZN__A2=0,B=1

Doing analysis at TEMP = 70.104378 and TNOM = 27.000000

Using SPARSE 1.3 as Direct Linear Solver

Initial Transient Solution
--------------------------

Node                                   Voltage
----                                   -------
vdd                                     1.7663
a1                                           0
a2                                           0
b                                       1.7663
zn                                      1.7663
xu1.net_0                          1.10623e-08
xu1.net_1_0                             1.7663
xu1.net_1_1                             1.7663
xu1.net_1_2                             1.7663
xu1.net_1_3                             1.7663
vfix_b#branch                                0
vfix_a2#branch                               0
vin#branch                                   0
vdd#branch                         -2.0981e-11

 Reference value :  2.16714e-08
 Reference value :  5.20184e-08
 Reference value :  8.48934e-08
 Reference value :  1.16699e-07
 Reference value :  1.47884e-07
 Reference value :  1.79299e-07
 Reference value :  2.09868e-07
 Reference value :  2.41278e-07
 Reference value :  2.67758e-07
 Reference value :  2.98539e-07
 Reference value :  3.29229e-07
No. of Data Rows : 68032

  Measurements for Transient Analysis

tphl                =  2.45994e-09 targ=  3.11129e-08 trig=  2.86529e-08
tplh                =  5.22413e-09 targ=  1.13183e-07 trig=  1.07959e-07
i_vdd_avg           =  -1.48645e-06 from=  1.00000e-08 to=  3.30004e-07
power_avg_uw        =  2.62552e+00


Total analysis time (seconds) = 3.55387

Total elapsed time (seconds) = 3.628 

Total DRAM available = 16384.000 MB.
DRAM currently available =  101.031 MB.
Maximum ngspice program size =   16.891 MB.
Current ngspice program size =   16.891 MB.

