
Note: No compatibility mode selected!


Circuit: GF180MCU library cell aoi21_1 A1_to_ZN__A2=1,B=0

Doing analysis at TEMP = 53.823579 and TNOM = 27.000000

Using SPARSE 1.3 as Direct Linear Solver

Initial Transient Solution
--------------------------

Node                                   Voltage
----                                   -------
vdd                                    1.93334
a1                                           0
a2                                     1.93334
b                                            0
xu1.net_0                          1.74464e-09
zn                                     1.93334
xu1.net_1                              1.93334
vfix_b#branch                                0
vfix_a2#branch                               0
vin#branch                                   0
vdd#branch                        -4.58209e-12

 Reference value :  6.84664e-08
 Reference value :  1.71365e-07
 Reference value :  2.69561e-07
No. of Data Rows : 68032

  Measurements for Transient Analysis

tphl                =  2.01013e-09 targ=  3.06946e-08 trig=  2.86845e-08
tplh                =  4.29479e-09 targ=  1.12348e-07 trig=  1.08053e-07
i_vdd_avg           =  -3.96448e-07 from=  1.00000e-08 to=  3.30000e-07
power_avg_uw        =  7.66470e-01


Total analysis time (seconds) = 1.16264

Total elapsed time (seconds) = 1.239 

Total DRAM available = 16384.000 MB.
DRAM currently available =  116.797 MB.
Maximum ngspice program size =   14.750 MB.
Current ngspice program size =   14.750 MB.

