
Note: No compatibility mode selected!


Circuit: GF180MCU library cell mux2_1 I0_to_Z__I1=0,S=0

Doing analysis at TEMP = 44.760170 and TNOM = 27.000000

Using SPARSE 1.3 as Direct Linear Solver

Initial Transient Solution
--------------------------

Node                                   Voltage
----                                   -------
vdd                                    1.67758
i0                                           0
i1                                           0
s                                            0
xu1.int04                              1.67758
z                                  8.79229e-09
xu1.net_1                            0.0461472
xu1.net_3                              1.26572
xu1.sel1_n                             1.67758
xu1.net_0                              1.67758
xu1.net_2                              1.67758
vfix_s#branch                                0
vfix_i1#branch                               0
vin#branch                                   0
vdd#branch                          -3.067e-11

 Reference value :  4.32773e-08
 Reference value :  1.00267e-07
 Reference value :  1.59072e-07
 Reference value :  2.10752e-07
 Reference value :  2.64802e-07
 Reference value :  3.22147e-07
No. of Data Rows : 68032

  Measurements for Transient Analysis

tplh                =  2.56983e-09 targ=  2.97172e-08 trig=  2.71474e-08
tphl                =  2.84477e-09 targ=  1.06287e-07 trig=  1.03442e-07
i_vdd_avg           =  -9.26694e-07 from=  1.00000e-08 to=  3.30002e-07
power_avg_uw        =  1.55460e+00


Total analysis time (seconds) = 1.95197

Total elapsed time (seconds) = 2.018 

Total DRAM available = 16384.000 MB.
DRAM currently available =   95.297 MB.
Maximum ngspice program size =   14.672 MB.
Current ngspice program size =   14.672 MB.

