
Note: No compatibility mode selected!


Circuit: GF180MCU library cell inv_1 I_to_ZN

Doing analysis at TEMP = 64.005540 and TNOM = 27.000000

Using SPARSE 1.3 as Direct Linear Solver

Initial Transient Solution
--------------------------

Node                                   Voltage
----                                   -------
vdd                                    1.83322
i                                            0
zn                                     1.83322
vin#branch                                   0
vdd#branch                        -1.87465e-12

 Reference value :  2.55424e-07
No. of Data Rows : 68030

  Measurements for Transient Analysis

tphl                =  6.62050e-09 targ=  3.53739e-08 trig=  2.87534e-08
tplh                =  1.31408e-08 targ=  1.21401e-07 trig=  1.08260e-07
i_vdd_avg           =  -2.12365e-06 from=  1.00000e-08 to=  3.30001e-07
power_avg_uw        =  3.89312e+00


Total analysis time (seconds) = 0.320674

Total elapsed time (seconds) = 0.371 

Total DRAM available = 16384.000 MB.
DRAM currently available =  145.141 MB.
Maximum ngspice program size =   15.812 MB.
Current ngspice program size =   15.812 MB.

