
Note: No compatibility mode selected!


Circuit: GF180MCU library cell inv_4 I_to_ZN

Doing analysis at TEMP = 32.783616 and TNOM = 27.000000

Using SPARSE 1.3 as Direct Linear Solver

Initial Transient Solution
--------------------------

Node                                   Voltage
----                                   -------
vdd                                    1.76601
i                                            0
zn                                     1.76601
vin#branch                                   0
vdd#branch                        -7.34845e-12

 Reference value :  7.25332e-08
 Reference value :  1.75499e-07
 Reference value :  2.75464e-07
No. of Data Rows : 68032

  Measurements for Transient Analysis

tphl                =  9.03076e-10 targ=  2.62684e-08 trig=  2.53654e-08
tplh                =  1.54764e-09 targ=  9.96437e-08 trig=  9.80961e-08
i_vdd_avg           =  -9.20912e-07 from=  1.00000e-08 to=  3.30004e-07
power_avg_uw        =  1.62634e+00


Total analysis time (seconds) = 1.09583

Total elapsed time (seconds) = 1.159 

Total DRAM available = 16384.000 MB.
DRAM currently available =  109.328 MB.
Maximum ngspice program size =   15.953 MB.
Current ngspice program size =   15.953 MB.

