
Note: No compatibility mode selected!


Circuit: GF180MCU library cell xor2_1 A1_to_Z__A2=0

Doing analysis at TEMP = 87.605815 and TNOM = 27.000000

Using SPARSE 1.3 as Direct Linear Solver

Initial Transient Solution
--------------------------

Node                                   Voltage
----                                   -------
vdd                                    1.79542
a1                                           0
a2                                           0
xu1.i                                  1.79542
z                                  4.77441e-08
xu1.net_0                          2.25979e-08
xu1.net_2                              1.79542
xu1.net_1                             0.639485
vfix_a2#branch                               0
vin#branch                                   0
vdd#branch                        -2.90165e-11

 Reference value :  4.54857e-08
 Reference value :  1.17804e-07
 Reference value :  1.85298e-07
 Reference value :  2.56151e-07
 Reference value :  3.25059e-07
No. of Data Rows : 68034

  Measurements for Transient Analysis

tplh                =  1.90401e-09 targ=  2.67656e-08 trig=  2.48616e-08
tphl                =  1.65665e-09 targ=  9.82415e-08 trig=  9.65848e-08
i_vdd_avg           =  -2.73048e-07 from=  1.00000e-08 to=  3.30004e-07
power_avg_uw        =  4.90238e-01


Total analysis time (seconds) = 1.60759

Total elapsed time (seconds) = 1.693 

Total DRAM available = 16384.000 MB.
DRAM currently available =   98.859 MB.
Maximum ngspice program size =   18.875 MB.
Current ngspice program size =   18.875 MB.

