
Note: No compatibility mode selected!


Circuit: GF180MCU library cell nand3_1 A1_to_ZN__A2=1,A3=1

Doing analysis at TEMP = 81.648813 and TNOM = 27.000000

Using SPARSE 1.3 as Direct Linear Solver

Initial Transient Solution
--------------------------

Node                                   Voltage
----                                   -------
vdd                                    1.63786
a1                                           0
a2                                     1.63786
a3                                     1.63786
xu1.net_1                          1.62225e-07
xu1.net_0                          3.24449e-07
zn                                     1.63786
vfix_a3#branch                               0
vfix_a2#branch                               0
vin#branch                                   0
vdd#branch                        -3.13014e-11

 Reference value :  8.46636e-08
 Reference value :  1.92529e-07
 Reference value :  2.83370e-07
No. of Data Rows : 68032

  Measurements for Transient Analysis

tphl                =  5.46113e-09 targ=  3.31017e-08 trig=  2.76406e-08
tplh                =  6.51182e-09 targ=  1.11434e-07 trig=  1.04922e-07
i_vdd_avg           =  -1.42299e-06 from=  1.00000e-08 to=  3.30005e-07
power_avg_uw        =  2.33067e+00


Total analysis time (seconds) = 1.04331

Total elapsed time (seconds) = 1.125 

Total DRAM available = 16384.000 MB.
DRAM currently available =  108.312 MB.
Maximum ngspice program size =   17.203 MB.
Current ngspice program size =   17.203 MB.

