
Note: No compatibility mode selected!


Circuit: GF180MCU library cell inv_1 I_to_ZN

Doing analysis at TEMP = -36.193154 and TNOM = 27.000000

Using SPARSE 1.3 as Direct Linear Solver

Initial Transient Solution
--------------------------

Node                                   Voltage
----                                   -------
vdd                                    1.74562
i                                            0
zn                                     1.74562
vin#branch                                   0
vdd#branch                        -1.75567e-12

 Reference value :  1.87348e-07
No. of Data Rows : 68032

  Measurements for Transient Analysis

tphl                =  1.72481e-09 targ=  2.89898e-08 trig=  2.72650e-08
tplh                =  3.08561e-09 targ=  1.06881e-07 trig=  1.03795e-07
i_vdd_avg           =  -3.35006e-07 from=  1.00000e-08 to=  3.30002e-07
power_avg_uw        =  5.84793e-01


Total analysis time (seconds) = 0.490178

Total elapsed time (seconds) = 0.594 

Total DRAM available = 16384.000 MB.
DRAM currently available =   74.906 MB.
Maximum ngspice program size =   18.250 MB.
Current ngspice program size =   18.250 MB.

