
Note: No compatibility mode selected!


Circuit: GF180MCU library cell oai21_1 A1_to_ZN__A2=0,B=1

Doing analysis at TEMP = 103.393550 and TNOM = 27.000000

Using SPARSE 1.3 as Direct Linear Solver

Initial Transient Solution
--------------------------

Node                                   Voltage
----                                   -------
vdd                                    1.80034
a1                                           0
a2                                           0
b                                      1.80034
zn                                     1.80034
xu1.net_0                            7.791e-09
xu1.net_1                              1.80034
vfix_b#branch                                0
vfix_a2#branch                               0
vin#branch                                   0
vdd#branch                         -4.4207e-12

 Reference value :  7.55349e-08
 Reference value :  1.75502e-07
 Reference value :  2.79897e-07
No. of Data Rows : 68030

  Measurements for Transient Analysis

tphl                =  5.29270e-10 targ=  2.46505e-08 trig=  2.41212e-08
tplh                =  1.36832e-09 targ=  9.57319e-08 trig=  9.43636e-08
i_vdd_avg           =  -1.13369e-07 from=  1.00000e-08 to=  3.30002e-07
power_avg_uw        =  2.04103e-01


Total analysis time (seconds) = 1.09962

Total elapsed time (seconds) = 1.190 

Total DRAM available = 16384.000 MB.
DRAM currently available =  142.516 MB.
Maximum ngspice program size =   18.141 MB.
Current ngspice program size =   18.141 MB.

