
Note: No compatibility mode selected!


Circuit: GF180MCU library cell nand2_4 A1_to_ZN__A2=1

Doing analysis at TEMP = 105.145430 and TNOM = 27.000000

Using SPARSE 1.3 as Direct Linear Solver

Initial Transient Solution
--------------------------

Node                                   Voltage
----                                   -------
vdd                                    1.95981
a1                                           0
a2                                     1.95981
xu1.net_0_0                        4.23946e-08
zn                                     1.95981
xu1.net_0_1                        4.23946e-08
xu1.net_0_2                        4.23946e-08
xu1.net_0_3                        4.23946e-08
vfix_a2#branch                               0
vin#branch                                   0
vdd#branch                        -3.48955e-11

 Reference value :  3.01275e-08
 Reference value :  7.76512e-08
 Reference value :  1.25300e-07
 Reference value :  1.74690e-07
 Reference value :  2.26141e-07
 Reference value :  2.72575e-07
 Reference value :  3.23510e-07
No. of Data Rows : 68034

  Measurements for Transient Analysis

tphl                =  2.44136e-09 targ=  3.10032e-08 trig=  2.85619e-08
tplh                =  3.79837e-09 targ=  1.11484e-07 trig=  1.07686e-07
i_vdd_avg           =  -2.21259e-06 from=  1.00000e-08 to=  3.30005e-07
power_avg_uw        =  4.33626e+00


Total analysis time (seconds) = 2.27528

Total elapsed time (seconds) = 2.336 

Total DRAM available = 16384.000 MB.
DRAM currently available =  156.672 MB.
Maximum ngspice program size =   14.859 MB.
Current ngspice program size =   14.859 MB.

