
Note: No compatibility mode selected!


Circuit: GF180MCU library cell mux2_4 I0_to_Z__I1=0,S=0

Doing analysis at TEMP = 121.919640 and TNOM = 27.000000

Using SPARSE 1.3 as Direct Linear Solver

Initial Transient Solution
--------------------------

Node                                   Voltage
----                                   -------
vdd                                    1.84668
i0                                           0
i1                                           0
s                                            0
xu1.int04                              1.84668
z                                  3.84598e-08
xu1.net_1                            0.0536226
xu1.net_3                               1.3784
xu1.sel1_n                             1.84668
xu1.net_0                              1.84668
xu1.net_2                              1.84668
vfix_s#branch                                0
vfix_i1#branch                               0
vin#branch                                   0
vdd#branch                        -4.56296e-10

 Reference value :  3.14660e-08
 Reference value :  7.16560e-08
 Reference value :  1.11705e-07
 Reference value :  1.52715e-07
 Reference value :  1.92026e-07
 Reference value :  2.27331e-07
 Reference value :  2.67745e-07
 Reference value :  3.10100e-07
No. of Data Rows : 68034

  Measurements for Transient Analysis

tplh                =  1.02345e-09 targ=  2.52352e-08 trig=  2.42118e-08
tphl                =  1.36170e-09 targ=  9.59970e-08 trig=  9.46353e-08
i_vdd_avg           =  -1.09078e-06 from=  1.00000e-08 to=  3.30005e-07
power_avg_uw        =  2.01433e+00


Total analysis time (seconds) = 2.69812

Total elapsed time (seconds) = 2.773 

Total DRAM available = 16384.000 MB.
DRAM currently available =   89.438 MB.
Maximum ngspice program size =   17.641 MB.
Current ngspice program size =   17.641 MB.

