
Note: No compatibility mode selected!


Circuit: GF180MCU library cell nor2_4 A1_to_ZN__A2=0

Doing analysis at TEMP = 66.477417 and TNOM = 27.000000

Using SPARSE 1.3 as Direct Linear Solver

Initial Transient Solution
--------------------------

Node                                   Voltage
----                                   -------
vdd                                    1.70411
a1                                           0
a2                                           0
zn                                     1.70411
xu1.net_0_0                            1.70411
xu1.net_0_1                            1.70411
xu1.net_0_2                            1.70411
xu1.net_0_3                            1.70411
vfix_a2#branch                               0
vin#branch                                   0
vdd#branch                        -1.22135e-10

 Reference value :  3.08815e-08
 Reference value :  7.84115e-08
 Reference value :  1.29806e-07
 Reference value :  1.73721e-07
 Reference value :  2.23197e-07
 Reference value :  2.71706e-07
 Reference value :  3.18536e-07
No. of Data Rows : 68032

  Measurements for Transient Analysis

tphl                =  1.81696e-09 targ=  2.89390e-08 trig=  2.71220e-08
tplh                =  4.05440e-09 targ=  1.07420e-07 trig=  1.03366e-07
i_vdd_avg           =  -2.20008e-06 from=  1.00000e-08 to=  3.30001e-07
power_avg_uw        =  3.74917e+00


Total analysis time (seconds) = 2.3708

Total elapsed time (seconds) = 2.440 

Total DRAM available = 16384.000 MB.
DRAM currently available =   92.250 MB.
Maximum ngspice program size =   13.391 MB.
Current ngspice program size =   13.391 MB.

