
Note: No compatibility mode selected!


Circuit: GF180MCU library cell oai21_1 A1_to_ZN__A2=0,B=1

Doing analysis at TEMP = 85.117837 and TNOM = 27.000000

Using SPARSE 1.3 as Direct Linear Solver

Initial Transient Solution
--------------------------

Node                                   Voltage
----                                   -------
vdd                                    1.70553
a1                                           0
a2                                           0
b                                      1.70553
zn                                     1.70553
xu1.net_0                          3.85604e-07
xu1.net_1                              1.70553
vfix_b#branch                                0
vfix_a2#branch                               0
vin#branch                                   0
vdd#branch                        -7.66382e-11

 Reference value :  8.59528e-08
 Reference value :  1.87108e-07
 Reference value :  2.91258e-07
No. of Data Rows : 68032

  Measurements for Transient Analysis

tphl                =  1.40588e-09 targ=  2.67985e-08 trig=  2.53927e-08
tplh                =  2.96235e-09 targ=  1.01140e-07 trig=  9.81780e-08
i_vdd_avg           =  -4.78753e-07 from=  1.00000e-08 to=  3.30003e-07
power_avg_uw        =  8.16529e-01


Total analysis time (seconds) = 1.0146

Total elapsed time (seconds) = 1.080 

Total DRAM available = 16384.000 MB.
DRAM currently available =  120.594 MB.
Maximum ngspice program size =   14.000 MB.
Current ngspice program size =   14.000 MB.

