
Note: No compatibility mode selected!


Circuit: GF180MCU library cell nand3_1 A1_to_ZN__A2=1,A3=1

Doing analysis at TEMP = 14.887868 and TNOM = 27.000000

Using SPARSE 1.3 as Direct Linear Solver

Initial Transient Solution
--------------------------

Node                                   Voltage
----                                   -------
vdd                                    1.78961
a1                                           0
a2                                     1.78961
a3                                     1.78961
xu1.net_1                          7.60699e-11
xu1.net_0                           1.5214e-10
zn                                     1.78961
vfix_a3#branch                               0
vfix_a2#branch                               0
vin#branch                                   0
vdd#branch                        -1.81337e-12

 Reference value :  8.14967e-08
 Reference value :  1.92532e-07
 Reference value :  2.88541e-07
No. of Data Rows : 68032

  Measurements for Transient Analysis

tphl                =  4.01413e-09 targ=  3.00887e-08 trig=  2.60746e-08
tplh                =  4.90316e-09 targ=  1.05127e-07 trig=  1.00224e-07
i_vdd_avg           =  -9.83643e-07 from=  1.00000e-08 to=  3.30001e-07
power_avg_uw        =  1.76034e+00


Total analysis time (seconds) = 1.07294

Total elapsed time (seconds) = 1.149 

Total DRAM available = 16384.000 MB.
DRAM currently available =  108.312 MB.
Maximum ngspice program size =   16.453 MB.
Current ngspice program size =   16.453 MB.

