
Note: No compatibility mode selected!


Circuit: GF180MCU library cell xor2_4 A1_to_Z__A2=0

Doing analysis at TEMP = 75.033922 and TNOM = 27.000000

Using SPARSE 1.3 as Direct Linear Solver

Initial Transient Solution
--------------------------

Node                                   Voltage
----                                   -------
vdd                                    1.62077
a1                                           0
a2                                           0
xu1.net_2                            0.0486668
xu1.i                                  1.62077
xu1.net_0                          2.26605e-07
xu1.z_neg                              1.62077
z                                  1.08488e-08
xu1.net_1                              1.62077
vfix_a2#branch                               0
vin#branch                                   0
vdd#branch                        -6.52828e-11

 Reference value :  2.66527e-08
 Reference value :  6.99877e-08
 Reference value :  1.09008e-07
 Reference value :  1.51318e-07
 Reference value :  1.91878e-07
 Reference value :  2.36973e-07
 Reference value :  2.79403e-07
 Reference value :  3.23003e-07
No. of Data Rows : 68032

  Measurements for Transient Analysis

tplh                =  2.31541e-09 targ=  2.74730e-08 trig=  2.51576e-08
tphl                =  2.46910e-09 targ=  9.99419e-08 trig=  9.74728e-08
i_vdd_avg           =  -2.26806e-06 from=  1.00000e-08 to=  3.30003e-07
power_avg_uw        =  3.67601e+00


Total analysis time (seconds) = 2.56894

Total elapsed time (seconds) = 2.645 

Total DRAM available = 16384.000 MB.
DRAM currently available =   92.297 MB.
Maximum ngspice program size =   16.609 MB.
Current ngspice program size =   16.609 MB.

