
Note: No compatibility mode selected!


Circuit: GF180MCU library cell nand3_4 A1_to_ZN__A2=1,A3=1

Doing analysis at TEMP = 61.592347 and TNOM = 27.000000

Using SPARSE 1.3 as Direct Linear Solver

Initial Transient Solution
--------------------------

Node                                   Voltage
----                                   -------
vdd                                    1.82206
a1                                           0
a2                                     1.82206
a3                                     1.82206
xu1.net_1_3                        5.02671e-08
xu1.net_0                          1.00534e-07
xu1.net_1_2                        5.02671e-08
xu1.net_1_1                        5.02671e-08
xu1.net_1_0                        5.02671e-08
xu1.net_0_0                        1.00534e-07
zn                                     1.82206
vfix_a3#branch                               0
vfix_a2#branch                               0
vin#branch                                   0
vdd#branch                        -5.08331e-11

 Reference value :  2.37464e-08
 Reference value :  5.46037e-08
 Reference value :  8.54187e-08
 Reference value :  1.17230e-07
 Reference value :  1.47695e-07
 Reference value :  1.78875e-07
 Reference value :  2.07979e-07
 Reference value :  2.37659e-07
 Reference value :  2.65644e-07
 Reference value :  2.96125e-07
 Reference value :  3.26985e-07
No. of Data Rows : 68032

  Measurements for Transient Analysis

tphl                =  4.21253e-10 targ=  2.97943e-08 trig=  2.93731e-08
tplh                =  1.84472e-09 targ=  1.11964e-07 trig=  1.10119e-07
i_vdd_avg           =  -7.59834e-07 from=  1.00000e-08 to=  3.30005e-07
power_avg_uw        =  1.38447e+00


Total analysis time (seconds) = 3.71083

Total elapsed time (seconds) = 3.778 

Total DRAM available = 16384.000 MB.
DRAM currently available =   77.766 MB.
Maximum ngspice program size =   17.812 MB.
Current ngspice program size =   17.812 MB.

