
Note: No compatibility mode selected!


Circuit: GF180MCU library cell nand3_4 A1_to_ZN__A2=1,A3=1

Doing analysis at TEMP = -18.805442 and TNOM = 27.000000

Using SPARSE 1.3 as Direct Linear Solver

Initial Transient Solution
--------------------------

Node                                   Voltage
----                                   -------
vdd                                    1.90948
a1                                           0
a2                                     1.90948
a3                                     1.90948
xu1.net_1_3                        8.66282e-11
xu1.net_0                          1.73256e-10
xu1.net_1_2                        8.66282e-11
xu1.net_1_1                        8.66282e-11
xu1.net_1_0                        8.66282e-11
xu1.net_0_0                        1.73256e-10
zn                                     1.90948
vfix_a3#branch                               0
vfix_a2#branch                               0
vin#branch                                   0
vdd#branch                        -7.77709e-12

 Reference value :  2.81975e-08
 Reference value :  6.14749e-08
 Reference value :  9.16049e-08
 Reference value :  1.22082e-07
 Reference value :  1.52477e-07
 Reference value :  1.83662e-07
 Reference value :  2.14635e-07
 Reference value :  2.45595e-07
 Reference value :  2.74707e-07
 Reference value :  3.06192e-07
 Reference value :  3.35847e-07
No. of Data Rows : 68030

  Measurements for Transient Analysis

tphl                =  1.89910e-09 targ=  2.85478e-08 trig=  2.66487e-08
tplh                =  2.59454e-09 targ=  1.04541e-07 trig=  1.01946e-07
i_vdd_avg           =  -2.54151e-06 from=  1.00000e-08 to=  3.30002e-07
power_avg_uw        =  4.85298e+00


Total analysis time (seconds) = 3.58285

Total elapsed time (seconds) = 3.652 

Total DRAM available = 16384.000 MB.
DRAM currently available =   72.016 MB.
Maximum ngspice program size =   13.328 MB.
Current ngspice program size =   13.328 MB.

