
Note: No compatibility mode selected!


Circuit: GF180MCU library cell xor2_4 A1_to_Z__A2=0

Doing analysis at TEMP = 66.071091 and TNOM = 27.000000

Using SPARSE 1.3 as Direct Linear Solver

Initial Transient Solution
--------------------------

Node                                   Voltage
----                                   -------
vdd                                    1.76933
a1                                           0
a2                                           0
xu1.net_2                            0.0426358
xu1.i                                  1.76933
xu1.net_0                          8.46927e-09
xu1.z_neg                              1.76933
z                                  1.20939e-08
xu1.net_1                              1.76933
vfix_a2#branch                               0
vin#branch                                   0
vdd#branch                        -1.48307e-11

 Reference value :  2.56925e-08
 Reference value :  6.66222e-08
 Reference value :  1.08567e-07
 Reference value :  1.48202e-07
 Reference value :  1.89553e-07
 Reference value :  2.32247e-07
 Reference value :  2.73627e-07
 Reference value :  3.16687e-07
No. of Data Rows : 68032

  Measurements for Transient Analysis

tplh                =  2.59570e-09 targ=  3.20905e-08 trig=  2.94948e-08
tphl                =  4.53243e-09 targ=  1.15017e-07 trig=  1.10485e-07
i_vdd_avg           =  -1.08702e-06 from=  1.00000e-08 to=  3.30002e-07
power_avg_uw        =  1.92329e+00


Total analysis time (seconds) = 2.64359

Total elapsed time (seconds) = 2.715 

Total DRAM available = 16384.000 MB.
DRAM currently available =  131.625 MB.
Maximum ngspice program size =   16.609 MB.
Current ngspice program size =   16.609 MB.

