
Note: No compatibility mode selected!


Circuit: GF180MCU library cell oai21_4 A1_to_ZN__A2=0,B=1

Doing analysis at TEMP = 1.742977 and TNOM = 27.000000

Using SPARSE 1.3 as Direct Linear Solver

Initial Transient Solution
--------------------------

Node                                   Voltage
----                                   -------
vdd                                    1.96101
a1                                           0
a2                                           0
b                                      1.96101
zn                                     1.96101
xu1.net_0                          4.11382e-11
xu1.net_1_0                            1.96101
xu1.net_1_1                            1.96101
xu1.net_1_2                            1.96101
xu1.net_1_3                            1.96101
vfix_b#branch                                0
vfix_a2#branch                               0
vin#branch                                   0
vdd#branch                        -1.58029e-11

 Reference value :  2.46725e-08
 Reference value :  5.33158e-08
 Reference value :  8.37758e-08
 Reference value :  1.14486e-07
 Reference value :  1.43539e-07
 Reference value :  1.75554e-07
 Reference value :  2.07896e-07
 Reference value :  2.40366e-07
 Reference value :  2.67376e-07
 Reference value :  2.98144e-07
 Reference value :  3.26509e-07
No. of Data Rows : 68034

  Measurements for Transient Analysis

tphl                =  9.10306e-10 targ=  3.07744e-08 trig=  2.98641e-08
tplh                =  3.17470e-09 targ=  1.14767e-07 trig=  1.11592e-07
i_vdd_avg           =  -6.67259e-07 from=  1.00000e-08 to=  3.30004e-07
power_avg_uw        =  1.30850e+00


Total analysis time (seconds) = 3.59827

Total elapsed time (seconds) = 3.667 

Total DRAM available = 16384.000 MB.
DRAM currently available =  156.125 MB.
Maximum ngspice program size =   17.453 MB.
Current ngspice program size =   17.453 MB.

