
Note: No compatibility mode selected!


Circuit: GF180MCU library cell oai21_1 A1_to_ZN__A2=0,B=1

Doing analysis at TEMP = 34.796494 and TNOM = 27.000000

Using SPARSE 1.3 as Direct Linear Solver

Initial Transient Solution
--------------------------

Node                                   Voltage
----                                   -------
vdd                                    1.62679
a1                                           0
a2                                           0
b                                      1.62679
zn                                     1.62679
xu1.net_0                          1.79604e-08
xu1.net_1                              1.62679
vfix_b#branch                                0
vfix_a2#branch                               0
vin#branch                                   0
vdd#branch                        -6.92901e-12

 Reference value :  6.72116e-08
 Reference value :  1.78666e-07
 Reference value :  2.78911e-07
No. of Data Rows : 68032

  Measurements for Transient Analysis

tphl                =  2.77591e-09 targ=  3.16229e-08 trig=  2.88470e-08
tplh                =  5.72499e-09 targ=  1.14266e-07 trig=  1.08541e-07
i_vdd_avg           =  -6.30178e-07 from=  1.00000e-08 to=  3.30001e-07
power_avg_uw        =  1.02517e+00


Total analysis time (seconds) = 1.0731

Total elapsed time (seconds) = 1.156 

Total DRAM available = 16384.000 MB.
DRAM currently available =  105.797 MB.
Maximum ngspice program size =   17.812 MB.
Current ngspice program size =   17.812 MB.

