
Note: No compatibility mode selected!


Circuit: GF180MCU library cell nand3_4 A1_to_ZN__A2=1,A3=1

Doing analysis at TEMP = 20.611446 and TNOM = 27.000000

Using SPARSE 1.3 as Direct Linear Solver

Initial Transient Solution
--------------------------

Node                                   Voltage
----                                   -------
vdd                                     1.6361
a1                                           0
a2                                      1.6361
a3                                      1.6361
xu1.net_1_3                        1.34086e-10
xu1.net_0                          2.68172e-10
xu1.net_1_2                        1.34086e-10
xu1.net_1_1                        1.34086e-10
xu1.net_1_0                        1.34086e-10
xu1.net_0_0                        2.68172e-10
zn                                      1.6361
vfix_a3#branch                               0
vfix_a2#branch                               0
vin#branch                                   0
vdd#branch                        -6.66862e-12

 Reference value :  2.17514e-08
 Reference value :  5.27902e-08
 Reference value :  8.44952e-08
 Reference value :  1.16048e-07
 Reference value :  1.46128e-07
 Reference value :  1.77618e-07
 Reference value :  2.07875e-07
 Reference value :  2.40755e-07
 Reference value :  2.73813e-07
 Reference value :  3.13273e-07
No. of Data Rows : 68034

  Measurements for Transient Analysis

tphl                =  2.99459e-09 targ=  3.19284e-08 trig=  2.89339e-08
tplh                =  4.37848e-09 targ=  1.13180e-07 trig=  1.08802e-07
i_vdd_avg           =  -1.05440e-06 from=  1.00000e-08 to=  3.30003e-07
power_avg_uw        =  1.72509e+00


Total analysis time (seconds) = 3.27613

Total elapsed time (seconds) = 3.349 

Total DRAM available = 16384.000 MB.
DRAM currently available =   99.266 MB.
Maximum ngspice program size =   17.016 MB.
Current ngspice program size =   17.016 MB.

