
Note: No compatibility mode selected!


Circuit: GF180MCU library cell oai21_4 A1_to_ZN__A2=0,B=1

Doing analysis at TEMP = 32.504894 and TNOM = 27.000000

Using SPARSE 1.3 as Direct Linear Solver

Initial Transient Solution
--------------------------

Node                                   Voltage
----                                   -------
vdd                                    1.72527
a1                                           0
a2                                           0
b                                      1.72527
zn                                     1.72527
xu1.net_0                          4.20183e-11
xu1.net_1_0                            1.72527
xu1.net_1_1                            1.72527
xu1.net_1_2                            1.72527
xu1.net_1_3                            1.72527
vfix_b#branch                                0
vfix_a2#branch                               0
vin#branch                                   0
vdd#branch                        -1.39015e-11

 Reference value :  2.07914e-08
 Reference value :  5.42602e-08
 Reference value :  8.65452e-08
 Reference value :  1.17223e-07
 Reference value :  1.46193e-07
 Reference value :  1.74758e-07
 Reference value :  2.06520e-07
 Reference value :  2.37930e-07
 Reference value :  2.66463e-07
 Reference value :  2.95818e-07
 Reference value :  3.25888e-07
No. of Data Rows : 68034

  Measurements for Transient Analysis

tphl                =  1.57678e-09 targ=  2.66882e-08 trig=  2.51114e-08
tplh                =  4.03795e-09 targ=  1.01372e-07 trig=  9.73341e-08
i_vdd_avg           =  -9.52792e-07 from=  1.00000e-08 to=  3.30003e-07
power_avg_uw        =  1.64382e+00


Total analysis time (seconds) = 3.6691

Total elapsed time (seconds) = 3.748 

Total DRAM available = 16384.000 MB.
DRAM currently available =   86.344 MB.
Maximum ngspice program size =   15.516 MB.
Current ngspice program size =   15.516 MB.

