
Note: No compatibility mode selected!


Circuit: GF180MCU library cell oai21_1 A1_to_ZN__A2=0,B=1

Doing analysis at TEMP = 17.847910 and TNOM = 27.000000

Using SPARSE 1.3 as Direct Linear Solver

Initial Transient Solution
--------------------------

Node                                   Voltage
----                                   -------
vdd                                    1.69978
a1                                           0
a2                                           0
b                                      1.69978
zn                                     1.69977
xu1.net_0                          4.95514e-09
xu1.net_1                              1.69978
vfix_b#branch                                0
vfix_a2#branch                               0
vin#branch                                   0
vdd#branch                        -4.53206e-12

 Reference value :  8.88372e-08
 Reference value :  2.26357e-07
 Reference value :  3.28357e-07
No. of Data Rows : 68032

  Measurements for Transient Analysis

tphl                =  1.02641e-09 targ=  2.75838e-08 trig=  2.65574e-08
tplh                =  2.32549e-09 targ=  1.03998e-07 trig=  1.01672e-07
i_vdd_avg           =  -2.39162e-07 from=  1.00000e-08 to=  3.30002e-07
power_avg_uw        =  4.06522e-01


Total analysis time (seconds) = 0.833026

Total elapsed time (seconds) = 0.914 

Total DRAM available = 16384.000 MB.
DRAM currently available =  105.797 MB.
Maximum ngspice program size =   17.812 MB.
Current ngspice program size =   17.812 MB.

