
Note: No compatibility mode selected!


Circuit: GF180MCU library cell nand2_1 A1_to_ZN__A2=1

Doing analysis at TEMP = -7.298536 and TNOM = 27.000000

Using SPARSE 1.3 as Direct Linear Solver

Initial Transient Solution
--------------------------

Node                                   Voltage
----                                   -------
vdd                                    1.66793
a1                                           0
a2                                     1.66793
xu1.net_0                          8.66966e-12
zn                                     1.66793
vfix_a2#branch                               0
vin#branch                                   0
vdd#branch                        -1.67945e-12

 Reference value :  1.18124e-07
 Reference value :  2.84764e-07
No. of Data Rows : 68034

  Measurements for Transient Analysis

tphl                =  4.54987e-09 targ=  3.25941e-08 trig=  2.80442e-08
tplh                =  6.53333e-09 targ=  1.12666e-07 trig=  1.06133e-07
i_vdd_avg           =  -9.92932e-07 from=  1.00000e-08 to=  3.30004e-07
power_avg_uw        =  1.65614e+00


Total analysis time (seconds) = 0.66428

Total elapsed time (seconds) = 0.739 

Total DRAM available = 16384.000 MB.
DRAM currently available =  183.672 MB.
Maximum ngspice program size =   18.156 MB.
Current ngspice program size =   18.156 MB.

