
Note: No compatibility mode selected!


Circuit: GF180MCU library cell oai21_4 A1_to_ZN__A2=0,B=1

Doing analysis at TEMP = -27.920635 and TNOM = 27.000000

Using SPARSE 1.3 as Direct Linear Solver

Initial Transient Solution
--------------------------

Node                                   Voltage
----                                   -------
vdd                                    1.85428
a1                                           0
a2                                           0
b                                      1.85428
zn                                     1.85428
xu1.net_0                          1.47526e-12
xu1.net_1_0                            1.85428
xu1.net_1_1                            1.85428
xu1.net_1_2                            1.85428
xu1.net_1_3                            1.85428
vfix_b#branch                                0
vfix_a2#branch                               0
vin#branch                                   0
vdd#branch                        -1.49155e-11

 Reference value :  2.81275e-08
 Reference value :  6.48038e-08
 Reference value :  9.21338e-08
 Reference value :  1.25135e-07
 Reference value :  1.57435e-07
 Reference value :  1.90388e-07
 Reference value :  2.21389e-07
 Reference value :  2.52119e-07
 Reference value :  2.83465e-07
 Reference value :  3.11955e-07
No. of Data Rows : 68030

  Measurements for Transient Analysis

tphl                =  2.56253e-09 targ=  3.00082e-08 trig=  2.74457e-08
tplh                =  5.23683e-09 targ=  1.09574e-07 trig=  1.04337e-07
i_vdd_avg           =  -2.35772e-06 from=  1.00000e-08 to=  3.30000e-07
power_avg_uw        =  4.37187e+00


Total analysis time (seconds) = 3.44311

Total elapsed time (seconds) = 3.512 

Total DRAM available = 16384.000 MB.
DRAM currently available =   80.750 MB.
Maximum ngspice program size =   14.000 MB.
Current ngspice program size =   14.000 MB.

