
Note: No compatibility mode selected!


Circuit: GF180MCU library cell inv_4 I_to_ZN

Doing analysis at TEMP = 49.253386 and TNOM = 27.000000

Using SPARSE 1.3 as Direct Linear Solver

Initial Transient Solution
--------------------------

Node                                   Voltage
----                                   -------
vdd                                    1.68312
i                                            0
zn                                     1.68312
vin#branch                                   0
vdd#branch                        -6.81115e-12

 Reference value :  6.64575e-08
 Reference value :  1.59757e-07
 Reference value :  2.57187e-07
No. of Data Rows : 68032

  Measurements for Transient Analysis

tphl                =  2.04936e-09 targ=  2.90419e-08 trig=  2.69925e-08
tplh                =  3.38211e-09 targ=  1.06360e-07 trig=  1.02977e-07
i_vdd_avg           =  -8.45228e-07 from=  1.00000e-08 to=  3.30002e-07
power_avg_uw        =  1.42262e+00


Total analysis time (seconds) = 1.24635

Total elapsed time (seconds) = 1.321 

Total DRAM available = 16384.000 MB.
DRAM currently available =  140.766 MB.
Maximum ngspice program size =   16.016 MB.
Current ngspice program size =   16.016 MB.

