
Note: No compatibility mode selected!


Circuit: GF180MCU library cell xor2_4 A1_to_Z__A2=0

Doing analysis at TEMP = 84.998065 and TNOM = 27.000000

Using SPARSE 1.3 as Direct Linear Solver

Initial Transient Solution
--------------------------

Node                                   Voltage
----                                   -------
vdd                                     1.7008
a1                                           0
a2                                           0
xu1.net_2                            0.0454417
xu1.i                                   1.7008
xu1.net_0                          2.86336e-08
xu1.z_neg                               1.7008
z                                  1.29882e-08
xu1.net_1                               1.7008
vfix_a2#branch                               0
vin#branch                                   0
vdd#branch                        -1.83046e-11

 Reference value :  2.70125e-08
 Reference value :  6.66924e-08
 Reference value :  1.08172e-07
 Reference value :  1.47077e-07
 Reference value :  1.89998e-07
 Reference value :  2.32667e-07
 Reference value :  2.76372e-07
 Reference value :  3.17482e-07
No. of Data Rows : 68032

  Measurements for Transient Analysis

tplh                =  2.41908e-09 targ=  3.23790e-08 trig=  2.99599e-08
tphl                =  4.64485e-09 targ=  1.16525e-07 trig=  1.11880e-07
i_vdd_avg           =  -5.86475e-07 from=  1.00000e-08 to=  3.30002e-07
power_avg_uw        =  9.97478e-01


Total analysis time (seconds) = 2.67872

Total elapsed time (seconds) = 2.743 

Total DRAM available = 16384.000 MB.
DRAM currently available =  102.312 MB.
Maximum ngspice program size =   16.734 MB.
Current ngspice program size =   16.734 MB.

