
Note: No compatibility mode selected!


Circuit: GF180MCU library cell nand3_1 A1_to_ZN__A2=1,A3=1

Doing analysis at TEMP = -9.378886 and TNOM = 27.000000

Using SPARSE 1.3 as Direct Linear Solver

Initial Transient Solution
--------------------------

Node                                   Voltage
----                                   -------
vdd                                      1.672
a1                                           0
a2                                       1.672
a3                                       1.672
xu1.net_1                          2.64259e-13
xu1.net_0                          5.28461e-13
zn                                       1.672
vfix_a3#branch                               0
vfix_a2#branch                               0
vin#branch                                   0
vdd#branch                        -1.68203e-12

 Reference value :  8.28054e-08
 Reference value :  1.83678e-07
 Reference value :  2.73180e-07
No. of Data Rows : 68034

  Measurements for Transient Analysis

tphl                =  1.29598e-08 targ=  4.28137e-08 trig=  2.98539e-08
tplh                =  1.70169e-08 targ=  1.28579e-07 trig=  1.11562e-07
i_vdd_avg           =  -1.58291e-06 from=  1.00000e-08 to=  3.30003e-07
power_avg_uw        =  2.64662e+00


Total analysis time (seconds) = 1.08988

Total elapsed time (seconds) = 1.159 

Total DRAM available = 16384.000 MB.
DRAM currently available =   98.000 MB.
Maximum ngspice program size =   18.562 MB.
Current ngspice program size =   18.562 MB.

