
Note: No compatibility mode selected!


Circuit: GF180MCU library cell xor2_4 A1_to_Z__A2=0

Doing analysis at TEMP = 89.538710 and TNOM = 27.000000

Using SPARSE 1.3 as Direct Linear Solver

Initial Transient Solution
--------------------------

Node                                   Voltage
----                                   -------
vdd                                    1.69684
a1                                           0
a2                                           0
xu1.net_2                            0.0509237
xu1.i                                  1.69684
xu1.net_0                          4.86238e-07
xu1.z_neg                              1.69684
z                                  1.35998e-08
xu1.net_1                              1.69684
vfix_a2#branch                               0
vin#branch                                   0
vdd#branch                        -1.28309e-10

 Reference value :  3.18805e-08
 Reference value :  7.20455e-08
 Reference value :  1.14488e-07
 Reference value :  1.56963e-07
 Reference value :  1.97930e-07
 Reference value :  2.39370e-07
 Reference value :  2.80263e-07
 Reference value :  3.24123e-07
No. of Data Rows : 68034

  Measurements for Transient Analysis

tplh                =  9.16398e-10 targ=  2.74804e-08 trig=  2.65640e-08
tphl                =  2.02149e-09 targ=  1.03713e-07 trig=  1.01692e-07
i_vdd_avg           =  -3.38273e-07 from=  1.00000e-08 to=  3.30003e-07
power_avg_uw        =  5.73997e-01


Total analysis time (seconds) = 2.54478

Total elapsed time (seconds) = 2.609 

Total DRAM available = 16384.000 MB.
DRAM currently available =  121.734 MB.
Maximum ngspice program size =   16.891 MB.
Current ngspice program size =   16.891 MB.

