
Note: No compatibility mode selected!


Circuit: GF180MCU library cell mux2_4 I0_to_Z__I1=0,S=0

Doing analysis at TEMP = 107.705070 and TNOM = 27.000000

Using SPARSE 1.3 as Direct Linear Solver

Initial Transient Solution
--------------------------

Node                                   Voltage
----                                   -------
vdd                                    1.75975
i0                                           0
i1                                           0
s                                            0
xu1.int04                              1.75975
z                                  1.44379e-08
xu1.net_1                            0.0456112
xu1.net_3                              1.27816
xu1.sel1_n                             1.75975
xu1.net_0                              1.75975
xu1.net_2                              1.75975
vfix_s#branch                                0
vfix_i1#branch                               0
vin#branch                                   0
vdd#branch                        -3.03017e-11

 Reference value :  3.02825e-08
 Reference value :  6.89943e-08
 Reference value :  1.09894e-07
 Reference value :  1.50936e-07
 Reference value :  1.88788e-07
 Reference value :  2.23294e-07
 Reference value :  2.61669e-07
 Reference value :  3.02031e-07
No. of Data Rows : 68030

  Measurements for Transient Analysis

tplh                =  3.50869e-09 targ=  3.25546e-08 trig=  2.90459e-08
tphl                =  4.52194e-09 targ=  1.13660e-07 trig=  1.09138e-07
i_vdd_avg           =  -2.19834e-06 from=  1.00000e-08 to=  3.30001e-07
power_avg_uw        =  3.86855e+00


Total analysis time (seconds) = 2.77062

Total elapsed time (seconds) = 2.846 

Total DRAM available = 16384.000 MB.
DRAM currently available =  103.500 MB.
Maximum ngspice program size =   17.734 MB.
Current ngspice program size =   17.734 MB.

