
Note: No compatibility mode selected!


Circuit: GF180MCU library cell nand2_4 A1_to_ZN__A2=1

Doing analysis at TEMP = 68.650239 and TNOM = 27.000000

Using SPARSE 1.3 as Direct Linear Solver

Initial Transient Solution
--------------------------

Node                                   Voltage
----                                   -------
vdd                                    1.92568
a1                                           0
a2                                     1.92568
xu1.net_0_0                        3.68539e-10
zn                                     1.92568
xu1.net_0_1                        3.68539e-10
xu1.net_0_2                        3.68539e-10
xu1.net_0_3                        3.68539e-10
vfix_a2#branch                               0
vin#branch                                   0
vdd#branch                        -7.92422e-12

 Reference value :  4.14004e-08
 Reference value :  8.98704e-08
 Reference value :  1.39848e-07
 Reference value :  1.91293e-07
 Reference value :  2.40695e-07
 Reference value :  2.92628e-07
No. of Data Rows : 68034

  Measurements for Transient Analysis

tphl                =  1.78530e-09 targ=  2.99243e-08 trig=  2.81390e-08
tplh                =  2.97250e-09 targ=  1.09389e-07 trig=  1.06417e-07
i_vdd_avg           =  -6.42793e-07 from=  1.00000e-08 to=  3.30003e-07
power_avg_uw        =  1.23781e+00


Total analysis time (seconds) = 2.11624

Total elapsed time (seconds) = 2.181 

Total DRAM available = 16384.000 MB.
DRAM currently available =  132.031 MB.
Maximum ngspice program size =   16.953 MB.
Current ngspice program size =   16.953 MB.

