
Note: No compatibility mode selected!


Circuit: GF180MCU library cell nand2_1 A1_to_ZN__A2=1

Doing analysis at TEMP = 45.119605 and TNOM = 27.000000

Using SPARSE 1.3 as Direct Linear Solver

Initial Transient Solution
--------------------------

Node                                   Voltage
----                                   -------
vdd                                    1.87959
a1                                           0
a2                                     1.87959
xu1.net_0                          5.91717e-11
zn                                     1.87959
vfix_a2#branch                               0
vin#branch                                   0
vdd#branch                        -1.89709e-12

 Reference value :  1.17057e-07
 Reference value :  3.00512e-07
No. of Data Rows : 68032

  Measurements for Transient Analysis

tphl                =  4.05449e-09 targ=  3.11643e-08 trig=  2.71098e-08
tplh                =  5.69371e-09 targ=  1.09023e-07 trig=  1.03329e-07
i_vdd_avg           =  -7.95976e-07 from=  1.00000e-08 to=  3.30002e-07
power_avg_uw        =  1.49610e+00


Total analysis time (seconds) = 0.631972

Total elapsed time (seconds) = 0.718 

Total DRAM available = 16384.000 MB.
DRAM currently available =   87.344 MB.
Maximum ngspice program size =   17.062 MB.
Current ngspice program size =   17.062 MB.

