
Note: No compatibility mode selected!


Circuit: GF180MCU library cell inv_4 I_to_ZN

Doing analysis at TEMP = -0.297628 and TNOM = 27.000000

Using SPARSE 1.3 as Direct Linear Solver

Initial Transient Solution
--------------------------

Node                                   Voltage
----                                   -------
vdd                                    1.90823
i                                            0
zn                                     1.90823
vin#branch                                   0
vdd#branch                        -7.68683e-12

 Reference value :  6.38487e-08
 Reference value :  1.58740e-07
 Reference value :  2.57959e-07
No. of Data Rows : 68032

  Measurements for Transient Analysis

tphl                =  1.41176e-09 targ=  2.93949e-08 trig=  2.79831e-08
tplh                =  2.92056e-09 targ=  1.08870e-07 trig=  1.05949e-07
i_vdd_avg           =  -1.33202e-06 from=  1.00000e-08 to=  3.30005e-07
power_avg_uw        =  2.54180e+00


Total analysis time (seconds) = 1.08538

Total elapsed time (seconds) = 1.142 

Total DRAM available = 16384.000 MB.
DRAM currently available =  183.672 MB.
Maximum ngspice program size =   13.500 MB.
Current ngspice program size =   13.500 MB.

