
Note: No compatibility mode selected!


Circuit: GF180MCU library cell nor2_1 A1_to_ZN__A2=0

Doing analysis at TEMP = 33.043393 and TNOM = 27.000000

Using SPARSE 1.3 as Direct Linear Solver

Initial Transient Solution
--------------------------

Node                                   Voltage
----                                   -------
vdd                                    1.72457
a1                                           0
a2                                           0
zn                                     1.72457
xu1.net_0                              1.72457
vfix_a2#branch                               0
vin#branch                                   0
vdd#branch                        -6.99733e-12

 Reference value :  1.10406e-07
 Reference value :  2.60346e-07
No. of Data Rows : 68032

  Measurements for Transient Analysis

tphl                =  1.78697e-10 targ=  2.44334e-08 trig=  2.42547e-08
tplh                =  3.69934e-10 targ=  9.51339e-08 trig=  9.47640e-08
i_vdd_avg           =  -5.52813e-08 from=  1.00000e-08 to=  3.30001e-07
power_avg_uw        =  9.53367e-02


Total analysis time (seconds) = 0.718417

Total elapsed time (seconds) = 0.803 

Total DRAM available = 16384.000 MB.
DRAM currently available =  167.062 MB.
Maximum ngspice program size =   18.734 MB.
Current ngspice program size =   18.734 MB.

