
Note: No compatibility mode selected!


Circuit: GF180MCU library cell inv_1 I_to_ZN

Doing analysis at TEMP = 80.078774 and TNOM = 27.000000

Using SPARSE 1.3 as Direct Linear Solver

Initial Transient Solution
--------------------------

Node                                   Voltage
----                                   -------
vdd                                    1.84015
i                                            0
zn                                     1.84015
vin#branch                                   0
vdd#branch                         -3.4568e-12

 Reference value :  2.04712e-07
No. of Data Rows : 68032

  Measurements for Transient Analysis

tphl                =  1.27724e-09 targ=  2.67868e-08 trig=  2.55095e-08
tplh                =  2.19693e-09 targ=  1.00726e-07 trig=  9.85286e-08
i_vdd_avg           =  -4.62750e-07 from=  1.00000e-08 to=  3.30001e-07
power_avg_uw        =  8.51531e-01


Total analysis time (seconds) = 0.409872

Total elapsed time (seconds) = 0.491 

Total DRAM available = 16384.000 MB.
DRAM currently available =  109.594 MB.
Maximum ngspice program size =   17.031 MB.
Current ngspice program size =   17.031 MB.

