
Note: No compatibility mode selected!


Circuit: GF180MCU library cell xor2_1 A1_to_Z__A2=0

Doing analysis at TEMP = 94.640883 and TNOM = 27.000000

Using SPARSE 1.3 as Direct Linear Solver

Initial Transient Solution
--------------------------

Node                                   Voltage
----                                   -------
vdd                                    1.71693
a1                                           0
a2                                           0
xu1.i                                  1.71692
z                                  4.93761e-08
xu1.net_0                          2.37861e-08
xu1.net_2                              1.71693
xu1.net_1                             0.607025
vfix_a2#branch                               0
vin#branch                                   0
vdd#branch                        -3.53963e-11

 Reference value :  4.49213e-08
 Reference value :  1.16670e-07
 Reference value :  1.92566e-07
 Reference value :  2.69441e-07
No. of Data Rows : 68032

  Measurements for Transient Analysis

tplh                =  1.01452e-08 targ=  3.80621e-08 trig=  2.79169e-08
tphl                =  4.60154e-09 targ=  1.10352e-07 trig=  1.05751e-07
i_vdd_avg           =  -1.30523e-06 from=  1.00000e-08 to=  3.30000e-07
power_avg_uw        =  2.24099e+00


Total analysis time (seconds) = 1.52481

Total elapsed time (seconds) = 1.598 

Total DRAM available = 16384.000 MB.
DRAM currently available =   82.828 MB.
Maximum ngspice program size =   16.266 MB.
Current ngspice program size =   16.266 MB.

