
Note: No compatibility mode selected!


Circuit: GF180MCU library cell nor2_4 A1_to_ZN__A2=0

Doing analysis at TEMP = -17.251366 and TNOM = 27.000000

Using SPARSE 1.3 as Direct Linear Solver

Initial Transient Solution
--------------------------

Node                                   Voltage
----                                   -------
vdd                                    1.67759
a1                                           0
a2                                           0
zn                                     1.67759
xu1.net_0_0                            1.67759
xu1.net_0_1                            1.67759
xu1.net_0_2                            1.67759
xu1.net_0_3                            1.67759
vfix_a2#branch                               0
vin#branch                                   0
vdd#branch                        -1.37294e-11

 Reference value :  3.35164e-08
 Reference value :  7.46364e-08
 Reference value :  1.21855e-07
 Reference value :  1.66390e-07
 Reference value :  2.12151e-07
 Reference value :  2.60206e-07
 Reference value :  3.07770e-07
No. of Data Rows : 68032

  Measurements for Transient Analysis

tphl                =  1.78793e-09 targ=  2.84549e-08 trig=  2.66670e-08
tplh                =  3.85764e-09 targ=  1.05859e-07 trig=  1.02001e-07
i_vdd_avg           =  -2.22558e-06 from=  1.00000e-08 to=  3.30000e-07
power_avg_uw        =  3.73361e+00


Total analysis time (seconds) = 2.40503

Total elapsed time (seconds) = 2.472 

Total DRAM available = 16384.000 MB.
DRAM currently available =  131.219 MB.
Maximum ngspice program size =   15.469 MB.
Current ngspice program size =   15.469 MB.

