
Note: No compatibility mode selected!


Circuit: GF180MCU library cell inv_4 I_to_ZN

Doing analysis at TEMP = 114.849470 and TNOM = 27.000000

Using SPARSE 1.3 as Direct Linear Solver

Initial Transient Solution
--------------------------

Node                                   Voltage
----                                   -------
vdd                                    1.96328
i                                            0
zn                                     1.96327
vin#branch                                   0
vdd#branch                        -6.64316e-10

 Reference value :  6.80951e-08
 Reference value :  1.54268e-07
 Reference value :  2.47465e-07
 Reference value :  3.36163e-07
No. of Data Rows : 68034

  Measurements for Transient Analysis

tphl                =  -2.11768e-10 targ=  2.88770e-08 trig=  2.90888e-08
tplh                =  1.56215e-09 targ=  1.10829e-07 trig=  1.09266e-07
i_vdd_avg           =  -1.33523e-06 from=  1.00000e-08 to=  3.30003e-07
power_avg_uw        =  2.62142e+00


Total analysis time (seconds) = 1.32812

Total elapsed time (seconds) = 1.383 

Total DRAM available = 16384.000 MB.
DRAM currently available =  183.672 MB.
Maximum ngspice program size =   13.672 MB.
Current ngspice program size =   13.672 MB.

