
Note: No compatibility mode selected!


Circuit: GF180MCU library cell nand2_1 A1_to_ZN__A2=1

Doing analysis at TEMP = -24.064491 and TNOM = 27.000000

Using SPARSE 1.3 as Direct Linear Solver

Initial Transient Solution
--------------------------

Node                                   Voltage
----                                   -------
vdd                                    1.71688
a1                                           0
a2                                     1.71688
xu1.net_0                          5.10306e-11
zn                                     1.71688
vfix_a2#branch                               0
vin#branch                                   0
vdd#branch                           -1.74e-12

 Reference value :  1.09878e-07
 Reference value :  2.76828e-07
No. of Data Rows : 68032

  Measurements for Transient Analysis

tphl                =  1.67198e-09 targ=  2.76171e-08 trig=  2.59451e-08
tplh                =  2.38462e-09 targ=  1.02220e-07 trig=  9.98354e-08
i_vdd_avg           =  -5.82041e-07 from=  1.00000e-08 to=  3.30003e-07
power_avg_uw        =  9.99296e-01


Total analysis time (seconds) = 0.709301

Total elapsed time (seconds) = 0.773 

Total DRAM available = 16384.000 MB.
DRAM currently available =  120.531 MB.
Maximum ngspice program size =   14.703 MB.
Current ngspice program size =   14.703 MB.

