
Note: No compatibility mode selected!


Circuit: GF180MCU library cell nand2_1 A1_to_ZN__A2=1

Doing analysis at TEMP = 92.351832 and TNOM = 27.000000

Using SPARSE 1.3 as Direct Linear Solver

Initial Transient Solution
--------------------------

Node                                   Voltage
----                                   -------
vdd                                    1.83877
a1                                           0
a2                                     1.83877
xu1.net_0                          2.12747e-08
zn                                     1.83877
vfix_a2#branch                               0
vin#branch                                   0
vdd#branch                        -5.08966e-12

 Reference value :  1.10100e-07
 Reference value :  2.77490e-07
No. of Data Rows : 68032

  Measurements for Transient Analysis

tphl                =  2.65100e-09 targ=  2.76215e-08 trig=  2.49705e-08
tplh                =  3.63456e-09 targ=  1.00546e-07 trig=  9.69116e-08
i_vdd_avg           =  -9.63114e-07 from=  1.00000e-08 to=  3.30005e-07
power_avg_uw        =  1.77094e+00


Total analysis time (seconds) = 0.721236

Total elapsed time (seconds) = 0.770 

Total DRAM available = 16384.000 MB.
DRAM currently available =  108.656 MB.
Maximum ngspice program size =   13.984 MB.
Current ngspice program size =   13.984 MB.

