
Note: No compatibility mode selected!


Circuit: GF180MCU library cell xor2_4 A1_to_Z__A2=0

Doing analysis at TEMP = -39.161661 and TNOM = 27.000000

Using SPARSE 1.3 as Direct Linear Solver

Initial Transient Solution
--------------------------

Node                                   Voltage
----                                   -------
vdd                                     1.9486
a1                                           0
a2                                           0
xu1.net_2                           0.00421106
xu1.i                                   1.9486
xu1.net_0                          1.75138e-11
xu1.z_neg                               1.9486
z                                  6.63687e-09
xu1.net_1                               1.9486
vfix_a2#branch                               0
vin#branch                                   0
vdd#branch                        -1.41925e-11

 Reference value :  2.70475e-08
 Reference value :  7.09623e-08
 Reference value :  1.13807e-07
 Reference value :  1.53992e-07
 Reference value :  1.95667e-07
 Reference value :  2.40852e-07
 Reference value :  2.80647e-07
 Reference value :  3.26212e-07
No. of Data Rows : 68032

  Measurements for Transient Analysis

tplh                =  1.17795e-09 targ=  2.85654e-08 trig=  2.73874e-08
tphl                =  2.33281e-09 targ=  1.06495e-07 trig=  1.04162e-07
i_vdd_avg           =  -1.55691e-06 from=  1.00000e-08 to=  3.30002e-07
power_avg_uw        =  3.03379e+00


Total analysis time (seconds) = 2.56002

Total elapsed time (seconds) = 2.641 

Total DRAM available = 16384.000 MB.
DRAM currently available =  128.172 MB.
Maximum ngspice program size =   16.547 MB.
Current ngspice program size =   16.547 MB.

