
Note: No compatibility mode selected!


Circuit: GF180MCU library cell oai21_4 A1_to_ZN__A2=0,B=1

Doing analysis at TEMP = 10.389168 and TNOM = 27.000000

Using SPARSE 1.3 as Direct Linear Solver

Initial Transient Solution
--------------------------

Node                                   Voltage
----                                   -------
vdd                                    1.73511
a1                                           0
a2                                           0
b                                      1.73511
zn                                     1.73511
xu1.net_0                           4.7884e-12
xu1.net_1_0                            1.73511
xu1.net_1_1                            1.73511
xu1.net_1_2                            1.73511
xu1.net_1_3                            1.73511
vfix_b#branch                                0
vfix_a2#branch                               0
vin#branch                                   0
vdd#branch                        -1.39633e-11

 Reference value :  2.28314e-08
 Reference value :  5.48956e-08
 Reference value :  8.71856e-08
 Reference value :  1.17964e-07
 Reference value :  1.50189e-07
 Reference value :  1.83419e-07
 Reference value :  2.15716e-07
 Reference value :  2.46621e-07
 Reference value :  2.73459e-07
 Reference value :  3.03334e-07
 Reference value :  3.35339e-07
No. of Data Rows : 68034

  Measurements for Transient Analysis

tphl                =  3.61697e-09 targ=  3.20360e-08 trig=  2.84190e-08
tplh                =  7.35142e-09 targ=  1.14608e-07 trig=  1.07257e-07
i_vdd_avg           =  -1.36429e-06 from=  1.00000e-08 to=  3.30004e-07
power_avg_uw        =  2.36719e+00


Total analysis time (seconds) = 3.48836

Total elapsed time (seconds) = 3.548 

Total DRAM available = 16384.000 MB.
DRAM currently available =   83.188 MB.
Maximum ngspice program size =   14.234 MB.
Current ngspice program size =   14.234 MB.

