
Note: No compatibility mode selected!


Circuit: GF180MCU library cell nand3_1 A1_to_ZN__A2=1,A3=1

Doing analysis at TEMP = 7.059477 and TNOM = 27.000000

Using SPARSE 1.3 as Direct Linear Solver

Initial Transient Solution
--------------------------

Node                                   Voltage
----                                   -------
vdd                                    1.87294
a1                                           0
a2                                     1.87294
a3                                     1.87294
xu1.net_1                          1.57609e-12
xu1.net_0                          3.15217e-12
zn                                     1.87294
vfix_a3#branch                               0
vfix_a2#branch                               0
vin#branch                                   0
vdd#branch                        -1.88316e-12

 Reference value :  7.45239e-08
 Reference value :  1.82950e-07
 Reference value :  2.83340e-07
No. of Data Rows : 68030

  Measurements for Transient Analysis

tphl                =  5.73134e-09 targ=  3.42446e-08 trig=  2.85132e-08
tplh                =  7.25683e-09 targ=  1.14797e-07 trig=  1.07540e-07
i_vdd_avg           =  -8.19451e-07 from=  1.00000e-08 to=  3.30000e-07
power_avg_uw        =  1.53478e+00


Total analysis time (seconds) = 1.10835

Total elapsed time (seconds) = 1.171 

Total DRAM available = 16384.000 MB.
DRAM currently available =  147.000 MB.
Maximum ngspice program size =   12.859 MB.
Current ngspice program size =   12.844 MB.

