
Note: No compatibility mode selected!


Circuit: GF180MCU library cell nand2_1 A1_to_ZN__A2=1

Doing analysis at TEMP = -37.943866 and TNOM = 27.000000

Using SPARSE 1.3 as Direct Linear Solver

Initial Transient Solution
--------------------------

Node                                   Voltage
----                                   -------
vdd                                     1.7733
a1                                           0
a2                                      1.7733
xu1.net_0                          1.03692e-11
zn                                      1.7733
vfix_a2#branch                               0
vin#branch                                   0
vdd#branch                         -1.7862e-12

 Reference value :  1.42734e-07
 Reference value :  3.06854e-07
No. of Data Rows : 68032

  Measurements for Transient Analysis

tphl                =  3.14977e-09 targ=  2.76701e-08 trig=  2.45204e-08
tplh                =  4.48430e-09 targ=  1.00045e-07 trig=  9.55611e-08
i_vdd_avg           =  -2.15394e-06 from=  1.00000e-08 to=  3.30004e-07
power_avg_uw        =  3.81959e+00


Total analysis time (seconds) = 0.628303

Total elapsed time (seconds) = 0.686 

Total DRAM available = 16384.000 MB.
DRAM currently available =  183.672 MB.
Maximum ngspice program size =   14.547 MB.
Current ngspice program size =   14.547 MB.

