
Note: No compatibility mode selected!


Circuit: GF180MCU library cell oai21_1 A1_to_ZN__A2=0,B=1

Doing analysis at TEMP = 44.908777 and TNOM = 27.000000

Using SPARSE 1.3 as Direct Linear Solver

Initial Transient Solution
--------------------------

Node                                   Voltage
----                                   -------
vdd                                    1.65626
a1                                           0
a2                                           0
b                                      1.65626
zn                                     1.65626
xu1.net_0                          1.29104e-10
xu1.net_1                              1.65626
vfix_b#branch                                0
vfix_a2#branch                               0
vin#branch                                   0
vdd#branch                        -3.34599e-12

 Reference value :  9.97096e-08
 Reference value :  2.00540e-07
 Reference value :  3.00747e-07
No. of Data Rows : 68030

  Measurements for Transient Analysis

tphl                =  6.15156e-09 targ=  3.25776e-08 trig=  2.64261e-08
tplh                =  1.67243e-08 targ=  1.18002e-07 trig=  1.01278e-07
i_vdd_avg           =  -1.02609e-06 from=  1.00000e-08 to=  3.30002e-07
power_avg_uw        =  1.69946e+00


Total analysis time (seconds) = 0.963528

Total elapsed time (seconds) = 1.027 

Total DRAM available = 16384.000 MB.
DRAM currently available =  146.828 MB.
Maximum ngspice program size =   15.188 MB.
Current ngspice program size =   15.188 MB.

