
Note: No compatibility mode selected!


Circuit: GF180MCU library cell mux2_4 I0_to_Z__I1=0,S=0

Doing analysis at TEMP = -1.362522 and TNOM = 27.000000

Using SPARSE 1.3 as Direct Linear Solver

Initial Transient Solution
--------------------------

Node                                   Voltage
----                                   -------
vdd                                    1.83953
i0                                           0
i1                                           0
s                                            0
xu1.int04                              1.83953
z                                  1.36337e-08
xu1.net_1                          3.14008e-05
xu1.net_3                              1.08211
xu1.sel1_n                             1.83953
xu1.net_0                              1.83953
xu1.net_2                              1.83953
vfix_s#branch                                0
vfix_i1#branch                               0
vin#branch                                   0
vdd#branch                        -1.54354e-11

 Reference value :  2.65324e-08
 Reference value :  6.81074e-08
 Reference value :  1.09717e-07
 Reference value :  1.49482e-07
 Reference value :  1.88647e-07
 Reference value :  2.22502e-07
 Reference value :  2.61237e-07
 Reference value :  3.00182e-07
 Reference value :  3.39507e-07
No. of Data Rows : 68032

  Measurements for Transient Analysis

tplh                =  1.92062e-09 targ=  2.60831e-08 trig=  2.41625e-08
tphl                =  2.76111e-09 targ=  9.72485e-08 trig=  9.44874e-08
i_vdd_avg           =  -9.49913e-07 from=  1.00000e-08 to=  3.30002e-07
power_avg_uw        =  1.74739e+00


Total analysis time (seconds) = 2.80802

Total elapsed time (seconds) = 2.886 

Total DRAM available = 16384.000 MB.
DRAM currently available =  103.500 MB.
Maximum ngspice program size =   15.516 MB.
Current ngspice program size =   15.516 MB.

