
Note: No compatibility mode selected!


Circuit: GF180MCU library cell nand2_1 A1_to_ZN__A2=1

Doing analysis at TEMP = 34.662894 and TNOM = 27.000000

Using SPARSE 1.3 as Direct Linear Solver

Initial Transient Solution
--------------------------

Node                                   Voltage
----                                   -------
vdd                                    1.73023
a1                                           0
a2                                     1.73023
xu1.net_0                          2.54691e-11
zn                                     1.73023
vfix_a2#branch                               0
vin#branch                                   0
vdd#branch                        -1.74317e-12

 Reference value :  1.20063e-07
 Reference value :  2.73133e-07
No. of Data Rows : 68032

  Measurements for Transient Analysis

tphl                =  9.65835e-09 targ=  3.88186e-08 trig=  2.91602e-08
tplh                =  1.42819e-08 targ=  1.23763e-07 trig=  1.09481e-07
i_vdd_avg           =  -1.72500e-06 from=  1.00000e-08 to=  3.30003e-07
power_avg_uw        =  2.98465e+00


Total analysis time (seconds) = 0.671807

Total elapsed time (seconds) = 0.731 

Total DRAM available = 16384.000 MB.
DRAM currently available =  124.516 MB.
Maximum ngspice program size =   14.281 MB.
Current ngspice program size =   14.281 MB.

