
Note: No compatibility mode selected!


Circuit: GF180MCU library cell inv_4 I_to_ZN

Doing analysis at TEMP = -5.854606 and TNOM = 27.000000

Using SPARSE 1.3 as Direct Linear Solver

Initial Transient Solution
--------------------------

Node                                   Voltage
----                                   -------
vdd                                    1.75877
i                                            0
zn                                     1.75877
vin#branch                                   0
vdd#branch                         -7.0753e-12

 Reference value :  6.64482e-08
 Reference value :  1.63484e-07
 Reference value :  2.61394e-07
No. of Data Rows : 68032

  Measurements for Transient Analysis

tphl                =  9.85342e-10 targ=  2.62632e-08 trig=  2.52778e-08
tplh                =  1.60579e-09 targ=  9.94393e-08 trig=  9.78335e-08
i_vdd_avg           =  -5.48606e-07 from=  1.00000e-08 to=  3.30004e-07
power_avg_uw        =  9.64874e-01


Total analysis time (seconds) = 1.15619

Total elapsed time (seconds) = 1.220 

Total DRAM available = 16384.000 MB.
DRAM currently available =  127.641 MB.
Maximum ngspice program size =   19.000 MB.
Current ngspice program size =   19.000 MB.

