
Note: No compatibility mode selected!


Circuit: GF180MCU library cell nand2_4 A1_to_ZN__A2=1

Doing analysis at TEMP = 73.048258 and TNOM = 27.000000

Using SPARSE 1.3 as Direct Linear Solver

Initial Transient Solution
--------------------------

Node                                   Voltage
----                                   -------
vdd                                    1.84988
a1                                           0
a2                                     1.84988
xu1.net_0_0                        6.55317e-09
zn                                     1.84988
xu1.net_0_1                        6.55317e-09
xu1.net_0_2                        6.55317e-09
xu1.net_0_3                        6.55317e-09
vfix_a2#branch                               0
vin#branch                                   0
vdd#branch                        -1.16598e-11

 Reference value :  2.78075e-08
 Reference value :  7.51260e-08
 Reference value :  1.23260e-07
 Reference value :  1.73110e-07
 Reference value :  2.23711e-07
 Reference value :  2.75110e-07
 Reference value :  3.24770e-07
No. of Data Rows : 68034

  Measurements for Transient Analysis

tphl                =  8.87380e-10 targ=  2.83916e-08 trig=  2.75043e-08
tplh                =  1.87454e-09 targ=  1.06387e-07 trig=  1.04513e-07
i_vdd_avg           =  -5.32198e-07 from=  1.00000e-08 to=  3.30005e-07
power_avg_uw        =  9.84502e-01


Total analysis time (seconds) = 2.33169

Total elapsed time (seconds) = 2.421 

Total DRAM available = 16384.000 MB.
DRAM currently available =  118.203 MB.
Maximum ngspice program size =   15.812 MB.
Current ngspice program size =   15.812 MB.

