
Note: No compatibility mode selected!


Circuit: GF180MCU library cell nand2_4 A1_to_ZN__A2=1

Doing analysis at TEMP = -21.191314 and TNOM = 27.000000

Using SPARSE 1.3 as Direct Linear Solver

Initial Transient Solution
--------------------------

Node                                   Voltage
----                                   -------
vdd                                    1.94286
a1                                           0
a2                                     1.94286
xu1.net_0_0                        6.72883e-11
zn                                     1.94286
xu1.net_0_1                        6.72883e-11
xu1.net_0_2                        6.72883e-11
xu1.net_0_3                        6.72883e-11
vfix_a2#branch                               0
vin#branch                                   0
vdd#branch                        -7.89058e-12

 Reference value :  3.29375e-08
 Reference value :  8.54807e-08
 Reference value :  1.37379e-07
 Reference value :  1.88258e-07
 Reference value :  2.39841e-07
 Reference value :  2.90344e-07
No. of Data Rows : 68034

  Measurements for Transient Analysis

tphl                =  9.08552e-10 targ=  2.98951e-08 trig=  2.89866e-08
tplh                =  2.40393e-09 targ=  1.11364e-07 trig=  1.08960e-07
i_vdd_avg           =  -1.48022e-06 from=  1.00000e-08 to=  3.30004e-07
power_avg_uw        =  2.87587e+00


Total analysis time (seconds) = 2.17884

Total elapsed time (seconds) = 2.247 

Total DRAM available = 16384.000 MB.
DRAM currently available =  111.484 MB.
Maximum ngspice program size =   17.281 MB.
Current ngspice program size =   17.281 MB.

