
Note: No compatibility mode selected!


Circuit: GF180MCU library cell nor2_4 A1_to_ZN__A2=0

Doing analysis at TEMP = 71.319639 and TNOM = 27.000000

Using SPARSE 1.3 as Direct Linear Solver

Initial Transient Solution
--------------------------

Node                                   Voltage
----                                   -------
vdd                                    1.63847
a1                                           0
a2                                           0
zn                                     1.63847
xu1.net_0_0                            1.63847
xu1.net_0_1                            1.63847
xu1.net_0_2                            1.63847
xu1.net_0_3                            1.63847
vfix_a2#branch                               0
vin#branch                                   0
vdd#branch                        -2.03837e-11

 Reference value :  3.34851e-08
 Reference value :  8.38501e-08
 Reference value :  1.33113e-07
 Reference value :  1.80583e-07
 Reference value :  2.28660e-07
 Reference value :  2.76173e-07
 Reference value :  3.21708e-07
No. of Data Rows : 68034

  Measurements for Transient Analysis

tphl                =  2.55379e-09 targ=  3.04776e-08 trig=  2.79238e-08
tplh                =  5.34794e-09 targ=  1.11119e-07 trig=  1.05771e-07
i_vdd_avg           =  -1.47720e-06 from=  1.00000e-08 to=  3.30003e-07
power_avg_uw        =  2.42034e+00


Total analysis time (seconds) = 2.30083

Total elapsed time (seconds) = 2.358 

Total DRAM available = 16384.000 MB.
DRAM currently available =  134.375 MB.
Maximum ngspice program size =   12.844 MB.
Current ngspice program size =   12.844 MB.

