
Note: No compatibility mode selected!


Circuit: GF180MCU library cell inv_4 I_to_ZN

Doing analysis at TEMP = -22.517386 and TNOM = 27.000000

Using SPARSE 1.3 as Direct Linear Solver

Initial Transient Solution
--------------------------

Node                                   Voltage
----                                   -------
vdd                                    1.77254
i                                            0
zn                                     1.77254
vin#branch                                   0
vdd#branch                        -7.13017e-12

 Reference value :  6.58718e-08
 Reference value :  1.59591e-07
 Reference value :  2.58722e-07
No. of Data Rows : 68032

  Measurements for Transient Analysis

tphl                =  3.62349e-09 targ=  3.25381e-08 trig=  2.89146e-08
tplh                =  5.91347e-09 targ=  1.14657e-07 trig=  1.08744e-07
i_vdd_avg           =  -2.02086e-06 from=  1.00000e-08 to=  3.30001e-07
power_avg_uw        =  3.58205e+00


Total analysis time (seconds) = 1.19275

Total elapsed time (seconds) = 1.257 

Total DRAM available = 16384.000 MB.
DRAM currently available =  140.766 MB.
Maximum ngspice program size =   17.812 MB.
Current ngspice program size =   17.812 MB.

