
Note: No compatibility mode selected!


Circuit: GF180MCU library cell mux2_4 I0_to_Z__I1=0,S=0

Doing analysis at TEMP = -33.763601 and TNOM = 27.000000

Using SPARSE 1.3 as Direct Linear Solver

Initial Transient Solution
--------------------------

Node                                   Voltage
----                                   -------
vdd                                    1.66565
i0                                           0
i1                                           0
s                                            0
xu1.int04                              1.66565
z                                  9.23399e-09
xu1.net_1                          2.38467e-05
xu1.net_3                             0.999994
xu1.sel1_n                             1.66565
xu1.net_0                              1.66565
xu1.net_2                              1.66565
vfix_s#branch                                0
vfix_i1#branch                               0
vin#branch                                   0
vdd#branch                         -1.4067e-11

 Reference value :  3.14898e-08
 Reference value :  6.86148e-08
 Reference value :  1.09217e-07
 Reference value :  1.49117e-07
 Reference value :  1.88538e-07
 Reference value :  2.23625e-07
 Reference value :  2.63040e-07
 Reference value :  3.03912e-07
No. of Data Rows : 68030

  Measurements for Transient Analysis

tplh                =  2.86393e-09 targ=  2.92751e-08 trig=  2.64112e-08
tphl                =  3.50859e-09 targ=  1.04742e-07 trig=  1.01233e-07
i_vdd_avg           =  -1.51692e-06 from=  1.00000e-08 to=  3.30002e-07
power_avg_uw        =  2.52666e+00


Total analysis time (seconds) = 2.73464

Total elapsed time (seconds) = 2.796 

Total DRAM available = 16384.000 MB.
DRAM currently available =   85.500 MB.
Maximum ngspice program size =   16.922 MB.
Current ngspice program size =   16.922 MB.

