
Note: No compatibility mode selected!


Circuit: GF180MCU library cell mux2_1 I0_to_Z__I1=0,S=0

Doing analysis at TEMP = 93.833731 and TNOM = 27.000000

Using SPARSE 1.3 as Direct Linear Solver

Initial Transient Solution
--------------------------

Node                                   Voltage
----                                   -------
vdd                                    1.82047
i0                                           0
i1                                           0
s                                            0
xu1.int04                              1.82047
z                                  1.32225e-08
xu1.net_1                            0.0480031
xu1.net_3                               1.3628
xu1.sel1_n                             1.82047
xu1.net_0                              1.82047
xu1.net_2                              1.82047
vfix_s#branch                                0
vfix_i1#branch                               0
vin#branch                                   0
vdd#branch                        -3.58863e-11

 Reference value :  4.10344e-08
 Reference value :  9.95994e-08
 Reference value :  1.48481e-07
 Reference value :  2.03444e-07
 Reference value :  2.59534e-07
 Reference value :  3.18076e-07
No. of Data Rows : 68030

  Measurements for Transient Analysis

tplh                =  3.38154e-09 targ=  3.11725e-08 trig=  2.77909e-08
tphl                =  3.70679e-09 targ=  1.09080e-07 trig=  1.05373e-07
i_vdd_avg           =  -9.06560e-07 from=  1.00000e-08 to=  3.30001e-07
power_avg_uw        =  1.65036e+00


Total analysis time (seconds) = 1.98611

Total elapsed time (seconds) = 2.064 

Total DRAM available = 16384.000 MB.
DRAM currently available =   95.703 MB.
Maximum ngspice program size =   17.359 MB.
Current ngspice program size =   17.359 MB.

