
Note: No compatibility mode selected!


Circuit: GF180MCU library cell aoi21_1 A1_to_ZN__A2=1,B=0

Doing analysis at TEMP = 28.042701 and TNOM = 27.000000

Using SPARSE 1.3 as Direct Linear Solver

Initial Transient Solution
--------------------------

Node                                   Voltage
----                                   -------
vdd                                    1.79924
a1                                           0
a2                                     1.79924
b                                            0
xu1.net_0                          5.33637e-09
zn                                     1.79924
xu1.net_1                              1.79924
vfix_b#branch                                0
vfix_a2#branch                               0
vin#branch                                   0
vdd#branch                        -6.31252e-12

 Reference value :  9.63695e-08
 Reference value :  2.02934e-07
 Reference value :  3.10376e-07
No. of Data Rows : 68030

  Measurements for Transient Analysis

tphl                =  1.97944e-09 targ=  2.80504e-08 trig=  2.60710e-08
tplh                =  4.12347e-09 targ=  1.04336e-07 trig=  1.00213e-07
i_vdd_avg           =  -8.04875e-07 from=  1.00000e-08 to=  3.30001e-07
power_avg_uw        =  1.44817e+00


Total analysis time (seconds) = 0.911513

Total elapsed time (seconds) = 0.977 

Total DRAM available = 16384.000 MB.
DRAM currently available =  140.844 MB.
Maximum ngspice program size =   14.328 MB.
Current ngspice program size =   14.328 MB.

