
Note: No compatibility mode selected!


Circuit: GF180MCU library cell mux2_4 I0_to_Z__I1=0,S=0

Doing analysis at TEMP = 16.143172 and TNOM = 27.000000

Using SPARSE 1.3 as Direct Linear Solver

Initial Transient Solution
--------------------------

Node                                   Voltage
----                                   -------
vdd                                    1.62029
i0                                           0
i1                                           0
s                                            0
xu1.int04                              1.62029
z                                  1.08833e-08
xu1.net_1                           0.00420415
xu1.net_3                              1.05114
xu1.sel1_n                             1.62029
xu1.net_0                              1.62029
xu1.net_2                              1.62029
vfix_s#branch                                0
vfix_i1#branch                               0
vin#branch                                   0
vdd#branch                        -1.38753e-11

 Reference value :  3.59667e-08
 Reference value :  8.30267e-08
 Reference value :  1.23506e-07
 Reference value :  1.59051e-07
 Reference value :  1.99212e-07
 Reference value :  2.40317e-07
 Reference value :  2.81296e-07
 Reference value :  3.20616e-07
No. of Data Rows : 68032

  Measurements for Transient Analysis

tplh                =  3.25534e-09 targ=  3.10724e-08 trig=  2.78171e-08
tphl                =  4.37363e-09 targ=  1.09825e-07 trig=  1.05451e-07
i_vdd_avg           =  -1.24354e-06 from=  1.00000e-08 to=  3.30001e-07
power_avg_uw        =  2.01489e+00


Total analysis time (seconds) = 2.67547

Total elapsed time (seconds) = 2.742 

Total DRAM available = 16384.000 MB.
DRAM currently available =  119.547 MB.
Maximum ngspice program size =   13.203 MB.
Current ngspice program size =   13.062 MB.

