
Note: No compatibility mode selected!


Circuit: GF180MCU library cell oai21_1 A1_to_ZN__A2=0,B=1

Doing analysis at TEMP = 116.049370 and TNOM = 27.000000

Using SPARSE 1.3 as Direct Linear Solver

Initial Transient Solution
--------------------------

Node                                   Voltage
----                                   -------
vdd                                    1.75763
a1                                           0
a2                                           0
b                                      1.75763
zn                                     1.75763
xu1.net_0                          1.56992e-07
xu1.net_1                              1.75763
vfix_b#branch                                0
vfix_a2#branch                               0
vin#branch                                   0
vdd#branch                         -2.4947e-11

 Reference value :  1.03407e-07
 Reference value :  2.01472e-07
 Reference value :  3.07587e-07
No. of Data Rows : 68032

  Measurements for Transient Analysis

tphl                =  6.19951e-09 targ=  3.61845e-08 trig=  2.99850e-08
tplh                =  1.29553e-08 targ=  1.24910e-07 trig=  1.11955e-07
i_vdd_avg           =  -1.39577e-06 from=  1.00000e-08 to=  3.30002e-07
power_avg_uw        =  2.45326e+00


Total analysis time (seconds) = 1.02944

Total elapsed time (seconds) = 1.088 

Total DRAM available = 16384.000 MB.
DRAM currently available =  120.594 MB.
Maximum ngspice program size =   14.375 MB.
Current ngspice program size =   14.375 MB.

