
Note: No compatibility mode selected!


Circuit: GF180MCU library cell xor2_4 A1_to_Z__A2=0

Doing analysis at TEMP = 57.056743 and TNOM = 27.000000

Using SPARSE 1.3 as Direct Linear Solver

Initial Transient Solution
--------------------------

Node                                   Voltage
----                                   -------
vdd                                    1.75448
a1                                           0
a2                                           0
xu1.net_2                            0.0486745
xu1.i                                  1.75448
xu1.net_0                          7.68921e-08
xu1.z_neg                              1.75448
z                                  9.24151e-09
xu1.net_1                              1.75448
vfix_a2#branch                               0
vin#branch                                   0
vdd#branch                        -3.34296e-11

 Reference value :  2.83925e-08
 Reference value :  7.36388e-08
 Reference value :  1.15970e-07
 Reference value :  1.58680e-07
 Reference value :  2.00879e-07
 Reference value :  2.42284e-07
 Reference value :  2.86405e-07
 Reference value :  3.28835e-07
No. of Data Rows : 68030

  Measurements for Transient Analysis

tplh                =  1.54539e-09 targ=  2.78436e-08 trig=  2.62982e-08
tphl                =  2.39208e-09 targ=  1.03287e-07 trig=  1.00894e-07
i_vdd_avg           =  -1.37104e-06 from=  1.00000e-08 to=  3.30000e-07
power_avg_uw        =  2.40547e+00


Total analysis time (seconds) = 2.50524

Total elapsed time (seconds) = 2.589 

Total DRAM available = 16384.000 MB.
DRAM currently available =  105.812 MB.
Maximum ngspice program size =   17.734 MB.
Current ngspice program size =   17.734 MB.

