
Note: No compatibility mode selected!


Circuit: GF180MCU library cell nand3_4 A1_to_ZN__A2=1,A3=1

Doing analysis at TEMP = -7.912115 and TNOM = 27.000000

Using SPARSE 1.3 as Direct Linear Solver

Initial Transient Solution
--------------------------

Node                                   Voltage
----                                   -------
vdd                                    1.77438
a1                                           0
a2                                     1.77438
a3                                     1.77438
xu1.net_1_3                          2.986e-13
xu1.net_0                          5.97229e-13
xu1.net_1_2                        2.98603e-13
xu1.net_1_1                          2.986e-13
xu1.net_1_0                        2.98616e-13
xu1.net_0_0                        5.97231e-13
zn                                     1.77438
vfix_a3#branch                               0
vfix_a2#branch                               0
vin#branch                                   0
vdd#branch                         -7.1377e-12

 Reference value :  2.52025e-08
 Reference value :  5.64991e-08
 Reference value :  8.47141e-08
 Reference value :  1.15131e-07
 Reference value :  1.45571e-07
 Reference value :  1.77176e-07
 Reference value :  2.06304e-07
 Reference value :  2.35854e-07
 Reference value :  2.64699e-07
 Reference value :  2.94991e-07
 Reference value :  3.24846e-07
No. of Data Rows : 68030

  Measurements for Transient Analysis

tphl                =  3.51064e-09 targ=  3.22039e-08 trig=  2.86933e-08
tplh                =  4.77606e-09 targ=  1.12856e-07 trig=  1.08080e-07
i_vdd_avg           =  -9.97155e-07 from=  1.00000e-08 to=  3.30001e-07
power_avg_uw        =  1.76934e+00


Total analysis time (seconds) = 3.75927

Total elapsed time (seconds) = 3.862 

Total DRAM available = 16384.000 MB.
DRAM currently available =   77.766 MB.
Maximum ngspice program size =   16.938 MB.
Current ngspice program size =   16.938 MB.

