
Note: No compatibility mode selected!


Circuit: GF180MCU library cell nor2_4 A1_to_ZN__A2=0

Doing analysis at TEMP = -4.005013 and TNOM = 27.000000

Using SPARSE 1.3 as Direct Linear Solver

Initial Transient Solution
--------------------------

Node                                   Voltage
----                                   -------
vdd                                    1.77102
a1                                           0
a2                                           0
zn                                     1.77102
xu1.net_0_0                            1.77102
xu1.net_0_1                            1.77102
xu1.net_0_2                            1.77102
xu1.net_0_3                            1.77102
vfix_a2#branch                               0
vin#branch                                   0
vdd#branch                        -1.42488e-11

 Reference value :  4.72289e-08
 Reference value :  9.53189e-08
 Reference value :  1.42180e-07
 Reference value :  1.89089e-07
 Reference value :  2.36334e-07
 Reference value :  2.85175e-07
 Reference value :  3.30945e-07
No. of Data Rows : 68030

  Measurements for Transient Analysis

tphl                =  1.44586e-09 targ=  2.61290e-08 trig=  2.46832e-08
tplh                =  4.49382e-09 targ=  1.00543e-07 trig=  9.60495e-08
i_vdd_avg           =  -1.50307e-06 from=  1.00000e-08 to=  3.30000e-07
power_avg_uw        =  2.66197e+00


Total analysis time (seconds) = 2.1629

Total elapsed time (seconds) = 2.222 

Total DRAM available = 16384.000 MB.
DRAM currently available =  135.672 MB.
Maximum ngspice program size =   14.906 MB.
Current ngspice program size =   14.906 MB.

