
Note: No compatibility mode selected!


Circuit: GF180MCU library cell nand2_4 A1_to_ZN__A2=1

Doing analysis at TEMP = 30.009246 and TNOM = 27.000000

Using SPARSE 1.3 as Direct Linear Solver

Initial Transient Solution
--------------------------

Node                                   Voltage
----                                   -------
vdd                                    1.68326
a1                                           0
a2                                     1.68326
xu1.net_0_0                        2.95431e-10
zn                                     1.68326
xu1.net_0_1                        2.95431e-10
xu1.net_0_2                        2.95431e-10
xu1.net_0_3                        2.95431e-10
vfix_a2#branch                               0
vin#branch                                   0
vdd#branch                        -6.96134e-12

 Reference value :  3.30125e-08
 Reference value :  7.91741e-08
 Reference value :  1.28181e-07
 Reference value :  1.80421e-07
 Reference value :  2.27514e-07
 Reference value :  2.77601e-07
 Reference value :  3.30491e-07
No. of Data Rows : 68030

  Measurements for Transient Analysis

tphl                =  3.05815e-09 targ=  3.24540e-08 trig=  2.93958e-08
tplh                =  4.78944e-09 targ=  1.14977e-07 trig=  1.10187e-07
i_vdd_avg           =  -1.53506e-06 from=  1.00000e-08 to=  3.30001e-07
power_avg_uw        =  2.58391e+00


Total analysis time (seconds) = 2.23204

Total elapsed time (seconds) = 2.294 

Total DRAM available = 16384.000 MB.
DRAM currently available =  132.031 MB.
Maximum ngspice program size =   16.469 MB.
Current ngspice program size =   16.469 MB.

