
Note: No compatibility mode selected!


Circuit: GF180MCU library cell xor2_1 A1_to_Z__A2=0

Doing analysis at TEMP = 16.721404 and TNOM = 27.000000

Using SPARSE 1.3 as Direct Linear Solver

Initial Transient Solution
--------------------------

Node                                   Voltage
----                                   -------
vdd                                    1.65876
a1                                           0
a2                                           0
xu1.i                                  1.65876
z                                  5.15762e-08
xu1.net_0                          1.32434e-10
xu1.net_2                              1.65876
xu1.net_1                             0.829308
vfix_a2#branch                               0
vin#branch                                   0
vdd#branch                        -9.17705e-12

 Reference value :  5.18811e-08
 Reference value :  1.23035e-07
 Reference value :  1.93541e-07
 Reference value :  2.59431e-07
 Reference value :  3.33760e-07
No. of Data Rows : 68034

  Measurements for Transient Analysis

tplh                =  2.46312e-08 targ=  5.06630e-08 trig=  2.60318e-08
tphl                =  7.13014e-09 targ=  1.07225e-07 trig=  1.00095e-07
i_vdd_avg           =  -1.65048e-06 from=  1.00000e-08 to=  3.30005e-07
power_avg_uw        =  2.73774e+00


Total analysis time (seconds) = 1.58138

Total elapsed time (seconds) = 1.644 

Total DRAM available = 16384.000 MB.
DRAM currently available =  113.656 MB.
Maximum ngspice program size =   16.672 MB.
Current ngspice program size =   16.672 MB.

