
Note: No compatibility mode selected!


Circuit: GF180MCU library cell inv_1 I_to_ZN

Doing analysis at TEMP = -32.464742 and TNOM = 27.000000

Using SPARSE 1.3 as Direct Linear Solver

Initial Transient Solution
--------------------------

Node                                   Voltage
----                                   -------
vdd                                    1.65336
i                                            0
zn                                     1.65336
vin#branch                                   0
vdd#branch                        -1.66845e-12

 Reference value :  1.87268e-07
No. of Data Rows : 68032

  Measurements for Transient Analysis

tphl                =  1.61390e-09 targ=  2.79058e-08 trig=  2.62919e-08
tplh                =  2.84263e-09 targ=  1.03718e-07 trig=  1.00876e-07
i_vdd_avg           =  -6.65388e-07 from=  1.00000e-08 to=  3.30000e-07
power_avg_uw        =  1.10012e+00


Total analysis time (seconds) = 0.483961

Total elapsed time (seconds) = 0.543 

Total DRAM available = 16384.000 MB.
DRAM currently available =  109.594 MB.
Maximum ngspice program size =   16.531 MB.
Current ngspice program size =   16.531 MB.

