
Note: No compatibility mode selected!


Circuit: GF180MCU library cell nor2_4 A1_to_ZN__A2=0

Doing analysis at TEMP = 40.929484 and TNOM = 27.000000

Using SPARSE 1.3 as Direct Linear Solver

Initial Transient Solution
--------------------------

Node                                   Voltage
----                                   -------
vdd                                    1.80363
a1                                           0
a2                                           0
zn                                     1.80363
xu1.net_0_0                            1.80363
xu1.net_0_1                            1.80363
xu1.net_0_2                            1.80363
xu1.net_0_3                            1.80363
vfix_a2#branch                               0
vin#branch                                   0
vdd#branch                        -1.55201e-11

 Reference value :  3.10075e-08
 Reference value :  7.37916e-08
 Reference value :  1.19416e-07
 Reference value :  1.66756e-07
 Reference value :  2.15832e-07
 Reference value :  2.65257e-07
 Reference value :  3.15631e-07
No. of Data Rows : 68032

  Measurements for Transient Analysis

tphl                =  1.36585e-09 targ=  3.11904e-08 trig=  2.98245e-08
tplh                =  3.70738e-09 targ=  1.15181e-07 trig=  1.11474e-07
i_vdd_avg           =  -7.06856e-07 from=  1.00000e-08 to=  3.30001e-07
power_avg_uw        =  1.27491e+00


Total analysis time (seconds) = 2.3497

Total elapsed time (seconds) = 2.418 

Total DRAM available = 16384.000 MB.
DRAM currently available =  122.062 MB.
Maximum ngspice program size =   16.109 MB.
Current ngspice program size =   16.109 MB.

