
Note: No compatibility mode selected!


Circuit: GF180MCU library cell mux2_1 I0_to_Z__I1=0,S=0

Doing analysis at TEMP = 99.311474 and TNOM = 27.000000

Using SPARSE 1.3 as Direct Linear Solver

Initial Transient Solution
--------------------------

Node                                   Voltage
----                                   -------
vdd                                    1.77945
i0                                           0
i1                                           0
s                                            0
xu1.int04                              1.77944
z                                  1.71558e-08
xu1.net_1                             0.052853
xu1.net_3                              1.34877
xu1.sel1_n                             1.77944
xu1.net_0                              1.77945
xu1.net_2                              1.77944
vfix_s#branch                                0
vfix_i1#branch                               0
vin#branch                                   0
vdd#branch                        -3.53645e-10

 Reference value :  4.57943e-08
 Reference value :  1.02634e-07
 Reference value :  1.59266e-07
 Reference value :  2.13549e-07
 Reference value :  2.68941e-07
 Reference value :  3.25661e-07
No. of Data Rows : 68030

  Measurements for Transient Analysis

tplh                =  1.81355e-09 targ=  2.82670e-08 trig=  2.64534e-08
tphl                =  2.27296e-09 targ=  1.03633e-07 trig=  1.01360e-07
i_vdd_avg           =  -7.12876e-07 from=  1.00000e-08 to=  3.30001e-07
power_avg_uw        =  1.26852e+00


Total analysis time (seconds) = 1.90558

Total elapsed time (seconds) = 1.975 

Total DRAM available = 16384.000 MB.
DRAM currently available =   87.844 MB.
Maximum ngspice program size =   16.219 MB.
Current ngspice program size =   16.219 MB.

