
Note: No compatibility mode selected!


Circuit: GF180MCU library cell nand3_1 A1_to_ZN__A2=1,A3=1

Doing analysis at TEMP = -28.459987 and TNOM = 27.000000

Using SPARSE 1.3 as Direct Linear Solver

Initial Transient Solution
--------------------------

Node                                   Voltage
----                                   -------
vdd                                    1.88646
a1                                           0
a2                                     1.88646
a3                                     1.88646
xu1.net_1                          1.95363e-14
xu1.net_0                           3.9063e-14
zn                                     1.88646
vfix_a3#branch                               0
vfix_a2#branch                               0
vin#branch                                   0
vdd#branch                        -1.89646e-12

 Reference value :  6.76406e-08
 Reference value :  1.73799e-07
 Reference value :  2.71159e-07
No. of Data Rows : 68034

  Measurements for Transient Analysis

tphl                =  9.13123e-09 targ=  3.48053e-08 trig=  2.56740e-08
tplh                =  1.13162e-08 targ=  1.10338e-07 trig=  9.90221e-08
i_vdd_avg           =  -2.08966e-06 from=  1.00000e-08 to=  3.30004e-07
power_avg_uw        =  3.94205e+00


Total analysis time (seconds) = 1.12903

Total elapsed time (seconds) = 1.203 

Total DRAM available = 16384.000 MB.
DRAM currently available =  108.312 MB.
Maximum ngspice program size =   16.016 MB.
Current ngspice program size =   16.016 MB.

