
Note: No compatibility mode selected!


Circuit: GF180MCU library cell xor2_4 A1_to_Z__A2=0

Doing analysis at TEMP = 28.845540 and TNOM = 27.000000

Using SPARSE 1.3 as Direct Linear Solver

Initial Transient Solution
--------------------------

Node                                   Voltage
----                                   -------
vdd                                    1.80307
a1                                           0
a2                                           0
xu1.net_2                            0.0250054
xu1.i                                  1.80307
xu1.net_0                          5.17103e-10
xu1.z_neg                              1.80307
z                                  1.08429e-08
xu1.net_1                              1.80307
vfix_a2#branch                               0
vin#branch                                   0
vdd#branch                        -1.32389e-11

 Reference value :  2.86025e-08
 Reference value :  6.91473e-08
 Reference value :  1.13172e-07
 Reference value :  1.53297e-07
 Reference value :  1.93042e-07
 Reference value :  2.34407e-07
 Reference value :  2.78402e-07
 Reference value :  3.18957e-07
No. of Data Rows : 68032

  Measurements for Transient Analysis

tplh                =  2.19003e-09 targ=  2.94999e-08 trig=  2.73099e-08
tphl                =  3.43858e-09 targ=  1.07368e-07 trig=  1.03930e-07
i_vdd_avg           =  -1.01607e-06 from=  1.00000e-08 to=  3.30002e-07
power_avg_uw        =  1.83203e+00


Total analysis time (seconds) = 2.6082

Total elapsed time (seconds) = 2.687 

Total DRAM available = 16384.000 MB.
DRAM currently available =  121.625 MB.
Maximum ngspice program size =   17.172 MB.
Current ngspice program size =   17.172 MB.

