
Note: No compatibility mode selected!


Circuit: GF180MCU library cell aoi21_1 A1_to_ZN__A2=1,B=0

Doing analysis at TEMP = 29.058989 and TNOM = 27.000000

Using SPARSE 1.3 as Direct Linear Solver

Initial Transient Solution
--------------------------

Node                                   Voltage
----                                   -------
vdd                                     1.6941
a1                                           0
a2                                      1.6941
b                                            0
xu1.net_0                          1.55542e-11
zn                                      1.6941
xu1.net_1                               1.6941
vfix_b#branch                                0
vfix_a2#branch                               0
vin#branch                                   0
vdd#branch                        -3.41239e-12

 Reference value :  8.25458e-08
 Reference value :  1.97041e-07
 Reference value :  2.96589e-07
No. of Data Rows : 68034

  Measurements for Transient Analysis

tphl                =  9.49245e-09 targ=  3.45666e-08 trig=  2.50741e-08
tplh                =  2.85855e-08 targ=  1.25808e-07 trig=  9.72224e-08
i_vdd_avg           =  -2.04810e-06 from=  1.00000e-08 to=  3.30004e-07
power_avg_uw        =  3.46967e+00


Total analysis time (seconds) = 0.975199

Total elapsed time (seconds) = 1.036 

Total DRAM available = 16384.000 MB.
DRAM currently available =  141.031 MB.
Maximum ngspice program size =   14.109 MB.
Current ngspice program size =   14.109 MB.

