
Note: No compatibility mode selected!


Circuit: GF180MCU library cell nor2_1 A1_to_ZN__A2=0

Doing analysis at TEMP = 63.931056 and TNOM = 27.000000

Using SPARSE 1.3 as Direct Linear Solver

Initial Transient Solution
--------------------------

Node                                   Voltage
----                                   -------
vdd                                     1.6841
a1                                           0
a2                                           0
zn                                     1.68409
xu1.net_0                               1.6841
vfix_a2#branch                               0
vin#branch                                   0
vdd#branch                        -2.66778e-11

 Reference value :  9.77529e-08
 Reference value :  2.42998e-07
No. of Data Rows : 68032

  Measurements for Transient Analysis

tphl                =  1.36259e-09 targ=  2.67303e-08 trig=  2.53677e-08
tplh                =  3.33074e-09 targ=  1.01434e-07 trig=  9.81031e-08
i_vdd_avg           =  -5.44935e-07 from=  1.00000e-08 to=  3.30003e-07
power_avg_uw        =  9.17723e-01


Total analysis time (seconds) = 0.79311

Total elapsed time (seconds) = 0.858 

Total DRAM available = 16384.000 MB.
DRAM currently available =   84.797 MB.
Maximum ngspice program size =   16.125 MB.
Current ngspice program size =   16.125 MB.

