
Note: No compatibility mode selected!


Circuit: GF180MCU library cell nor2_4 A1_to_ZN__A2=0

Doing analysis at TEMP = 96.906847 and TNOM = 27.000000

Using SPARSE 1.3 as Direct Linear Solver

Initial Transient Solution
--------------------------

Node                                   Voltage
----                                   -------
vdd                                    1.75126
a1                                           0
a2                                           0
zn                                     1.75126
xu1.net_0_0                            1.75126
xu1.net_0_1                            1.75126
xu1.net_0_2                            1.75126
xu1.net_0_3                            1.75126
vfix_a2#branch                               0
vin#branch                                   0
vdd#branch                        -5.31692e-10

 Reference value :  3.71308e-08
 Reference value :  8.54758e-08
 Reference value :  1.33404e-07
 Reference value :  1.83474e-07
 Reference value :  2.28661e-07
 Reference value :  2.78409e-07
 Reference value :  3.26319e-07
No. of Data Rows : 68034

  Measurements for Transient Analysis

tphl                =  1.30768e-11 targ=  2.59397e-08 trig=  2.59267e-08
tplh                =  7.43308e-10 targ=  1.00523e-07 trig=  9.97800e-08
i_vdd_avg           =  -2.39013e-07 from=  1.00000e-08 to=  3.30004e-07
power_avg_uw        =  4.18575e-01


Total analysis time (seconds) = 2.24786

Total elapsed time (seconds) = 2.317 

Total DRAM available = 16384.000 MB.
DRAM currently available =  134.375 MB.
Maximum ngspice program size =   16.203 MB.
Current ngspice program size =   16.203 MB.

