
Note: No compatibility mode selected!


Circuit: GF180MCU library cell mux2_4 I0_to_Z__I1=0,S=0

Doing analysis at TEMP = 74.142848 and TNOM = 27.000000

Using SPARSE 1.3 as Direct Linear Solver

Initial Transient Solution
--------------------------

Node                                   Voltage
----                                   -------
vdd                                     1.9758
i0                                           0
i1                                           0
s                                            0
xu1.int04                               1.9758
z                                    1.209e-08
xu1.net_1                            0.0392517
xu1.net_3                              1.42481
xu1.sel1_n                              1.9758
xu1.net_0                               1.9758
xu1.net_2                               1.9758
vfix_s#branch                                0
vfix_i1#branch                               0
vin#branch                                   0
vdd#branch                        -1.96613e-11

 Reference value :  3.68966e-08
 Reference value :  8.16116e-08
 Reference value :  1.23441e-07
 Reference value :  1.61021e-07
 Reference value :  1.95972e-07
 Reference value :  2.36457e-07
 Reference value :  2.75701e-07
 Reference value :  3.15401e-07
No. of Data Rows : 68032

  Measurements for Transient Analysis

tplh                =  2.06801e-09 targ=  3.05126e-08 trig=  2.84446e-08
tphl                =  3.26136e-09 targ=  1.10595e-07 trig=  1.07334e-07
i_vdd_avg           =  -1.43626e-06 from=  1.00000e-08 to=  3.30001e-07
power_avg_uw        =  2.83776e+00


Total analysis time (seconds) = 2.73401

Total elapsed time (seconds) = 2.798 

Total DRAM available = 16384.000 MB.
DRAM currently available =  147.734 MB.
Maximum ngspice program size =   16.016 MB.
Current ngspice program size =   16.016 MB.

