
Note: No compatibility mode selected!


Circuit: GF180MCU library cell nand2_4 A1_to_ZN__A2=1

Doing analysis at TEMP = 76.339957 and TNOM = 27.000000

Using SPARSE 1.3 as Direct Linear Solver

Initial Transient Solution
--------------------------

Node                                   Voltage
----                                   -------
vdd                                    1.79296
a1                                           0
a2                                     1.79296
xu1.net_0_0                        1.18397e-07
zn                                     1.79296
xu1.net_0_1                        1.18397e-07
xu1.net_0_2                        1.18397e-07
xu1.net_0_3                        1.18397e-07
vfix_a2#branch                               0
vin#branch                                   0
vdd#branch                        -1.04255e-10

 Reference value :  3.13725e-08
 Reference value :  8.04722e-08
 Reference value :  1.36182e-07
 Reference value :  1.90523e-07
 Reference value :  2.40407e-07
 Reference value :  2.89237e-07
No. of Data Rows : 68032

  Measurements for Transient Analysis

tphl                =  2.05014e-09 targ=  3.04000e-08 trig=  2.83498e-08
tplh                =  3.42123e-09 targ=  1.10471e-07 trig=  1.07050e-07
i_vdd_avg           =  -2.47772e-06 from=  1.00000e-08 to=  3.30002e-07
power_avg_uw        =  4.44244e+00


Total analysis time (seconds) = 2.15958

Total elapsed time (seconds) = 2.225 

Total DRAM available = 16384.000 MB.
DRAM currently available =  128.344 MB.
Maximum ngspice program size =   16.422 MB.
Current ngspice program size =   16.422 MB.

