
Note: No compatibility mode selected!


Circuit: GF180MCU library cell xor2_4 A1_to_Z__A2=0

Doing analysis at TEMP = 56.117614 and TNOM = 27.000000

Using SPARSE 1.3 as Direct Linear Solver

Initial Transient Solution
--------------------------

Node                                   Voltage
----                                   -------
vdd                                    1.77221
a1                                           0
a2                                           0
xu1.net_2                            0.0487892
xu1.i                                  1.77221
xu1.net_0                          7.23441e-08
xu1.z_neg                              1.77221
z                                   9.1833e-09
xu1.net_1                              1.77221
vfix_a2#branch                               0
vin#branch                                   0
vdd#branch                        -3.25848e-11

 Reference value :  2.57875e-08
 Reference value :  6.76857e-08
 Reference value :  1.13269e-07
 Reference value :  1.57654e-07
 Reference value :  1.98906e-07
 Reference value :  2.41481e-07
 Reference value :  2.82854e-07
 Reference value :  3.22389e-07
No. of Data Rows : 68034

  Measurements for Transient Analysis

tplh                =  1.36279e-09 targ=  2.68144e-08 trig=  2.54516e-08
tphl                =  1.93719e-09 targ=  1.00292e-07 trig=  9.83548e-08
i_vdd_avg           =  -1.22765e-06 from=  1.00000e-08 to=  3.30004e-07
power_avg_uw        =  2.17564e+00


Total analysis time (seconds) = 2.64636

Total elapsed time (seconds) = 2.719 

Total DRAM available = 16384.000 MB.
DRAM currently available =  131.625 MB.
Maximum ngspice program size =   17.594 MB.
Current ngspice program size =   17.594 MB.

