
Note: No compatibility mode selected!


Circuit: GF180MCU library cell aoi21_1 A1_to_ZN__A2=1,B=0

Doing analysis at TEMP = 108.253210 and TNOM = 27.000000

Using SPARSE 1.3 as Direct Linear Solver

Initial Transient Solution
--------------------------

Node                                   Voltage
----                                   -------
vdd                                    1.91282
a1                                           0
a2                                     1.91282
b                                            0
xu1.net_0                          5.05095e-08
zn                                     1.91282
xu1.net_1                              1.91282
vfix_b#branch                                0
vfix_a2#branch                               0
vin#branch                                   0
vdd#branch                         -2.0323e-11

 Reference value :  7.13134e-08
 Reference value :  1.80199e-07
 Reference value :  2.85424e-07
No. of Data Rows : 68032

  Measurements for Transient Analysis

tphl                =  4.23866e-09 targ=  3.17616e-08 trig=  2.75229e-08
tplh                =  9.10838e-09 targ=  1.13677e-07 trig=  1.04569e-07
i_vdd_avg           =  -1.33023e-06 from=  1.00000e-08 to=  3.30004e-07
power_avg_uw        =  2.54448e+00


Total analysis time (seconds) = 1.02741

Total elapsed time (seconds) = 1.100 

Total DRAM available = 16384.000 MB.
DRAM currently available =   68.359 MB.
Maximum ngspice program size =   15.562 MB.
Current ngspice program size =   15.562 MB.

