
Note: No compatibility mode selected!


Circuit: GF180MCU library cell oai21_4 A1_to_ZN__A2=0,B=1

Doing analysis at TEMP = 22.524815 and TNOM = 27.000000

Using SPARSE 1.3 as Direct Linear Solver

Initial Transient Solution
--------------------------

Node                                   Voltage
----                                   -------
vdd                                    1.90265
a1                                           0
a2                                           0
b                                      1.90265
zn                                     1.90265
xu1.net_0                           6.9445e-09
xu1.net_1_0                            1.90265
xu1.net_1_1                            1.90265
xu1.net_1_2                            1.90265
xu1.net_1_3                            1.90265
vfix_b#branch                                0
vfix_a2#branch                               0
vin#branch                                   0
vdd#branch                        -2.23007e-11

 Reference value :  2.67075e-08
 Reference value :  5.99032e-08
 Reference value :  9.14682e-08
 Reference value :  1.23574e-07
 Reference value :  1.53309e-07
 Reference value :  1.84048e-07
 Reference value :  2.15868e-07
 Reference value :  2.47583e-07
 Reference value :  2.76504e-07
 Reference value :  3.06594e-07
 Reference value :  3.33779e-07
No. of Data Rows : 68032

  Measurements for Transient Analysis

tphl                =  1.18259e-10 targ=  2.70786e-08 trig=  2.69603e-08
tplh                =  1.31652e-09 targ=  1.04198e-07 trig=  1.02881e-07
i_vdd_avg           =  -4.75661e-07 from=  1.00000e-08 to=  3.30004e-07
power_avg_uw        =  9.05017e-01


Total analysis time (seconds) = 3.57439

Total elapsed time (seconds) = 3.648 

Total DRAM available = 16384.000 MB.
DRAM currently available =   86.344 MB.
Maximum ngspice program size =   13.312 MB.
Current ngspice program size =   13.000 MB.

