
Note: No compatibility mode selected!


Circuit: GF180MCU library cell mux2_1 I0_to_Z__I1=0,S=0

Doing analysis at TEMP = 49.512445 and TNOM = 27.000000

Using SPARSE 1.3 as Direct Linear Solver

Initial Transient Solution
--------------------------

Node                                   Voltage
----                                   -------
vdd                                    1.68834
i0                                           0
i1                                           0
s                                            0
xu1.int04                              1.68834
z                                  8.95442e-09
xu1.net_1                            0.0469338
xu1.net_3                              1.27544
xu1.sel1_n                             1.68834
xu1.net_0                              1.68834
xu1.net_2                              1.68834
vfix_s#branch                                0
vfix_i1#branch                               0
vin#branch                                   0
vdd#branch                        -3.76158e-11

 Reference value :  4.80169e-08
 Reference value :  1.10457e-07
 Reference value :  1.65026e-07
 Reference value :  2.18832e-07
 Reference value :  2.74557e-07
 Reference value :  3.32396e-07
No. of Data Rows : 68032

  Measurements for Transient Analysis

tplh                =  4.08449e-09 targ=  3.32567e-08 trig=  2.91722e-08
tphl                =  4.17713e-09 targ=  1.13694e-07 trig=  1.09517e-07
i_vdd_avg           =  -1.65921e-06 from=  1.00000e-08 to=  3.30001e-07
power_avg_uw        =  2.80132e+00


Total analysis time (seconds) = 1.86762

Total elapsed time (seconds) = 1.964 

Total DRAM available = 16384.000 MB.
DRAM currently available =   72.922 MB.
Maximum ngspice program size =   18.234 MB.
Current ngspice program size =   18.234 MB.

