
Note: No compatibility mode selected!


Circuit: GF180MCU library cell nand3_1 A1_to_ZN__A2=1,A3=1

Doing analysis at TEMP = 32.097759 and TNOM = 27.000000

Using SPARSE 1.3 as Direct Linear Solver

Initial Transient Solution
--------------------------

Node                                   Voltage
----                                   -------
vdd                                    1.65144
a1                                           0
a2                                     1.65144
a3                                     1.65144
xu1.net_1                          2.10806e-11
xu1.net_0                          4.21611e-11
zn                                     1.65144
vfix_a3#branch                               0
vfix_a2#branch                               0
vin#branch                                   0
vdd#branch                         -1.6637e-12

 Reference value :  7.69880e-08
 Reference value :  1.78338e-07
 Reference value :  2.70538e-07
No. of Data Rows : 68032

  Measurements for Transient Analysis

tphl                =  1.54395e-08 targ=  4.17448e-08 trig=  2.63052e-08
tplh                =  1.96436e-08 targ=  1.20559e-07 trig=  1.00916e-07
i_vdd_avg           =  -2.06124e-06 from=  1.00000e-08 to=  3.30003e-07
power_avg_uw        =  3.40400e+00


Total analysis time (seconds) = 1.10147

Total elapsed time (seconds) = 1.174 

Total DRAM available = 16384.000 MB.
DRAM currently available =  139.406 MB.
Maximum ngspice program size =   17.391 MB.
Current ngspice program size =   17.391 MB.

