
Note: No compatibility mode selected!


Circuit: GF180MCU library cell nand3_4 A1_to_ZN__A2=1,A3=1

Doing analysis at TEMP = 87.093240 and TNOM = 27.000000

Using SPARSE 1.3 as Direct Linear Solver

Initial Transient Solution
--------------------------

Node                                   Voltage
----                                   -------
vdd                                    1.95124
a1                                           0
a2                                     1.95124
a3                                     1.95124
xu1.net_1_3                         2.0765e-07
xu1.net_0                            4.153e-07
xu1.net_1_2                         2.0765e-07
xu1.net_1_1                         2.0765e-07
xu1.net_1_0                         2.0765e-07
xu1.net_0_0                          4.153e-07
zn                                     1.95124
vfix_a3#branch                               0
vfix_a2#branch                               0
vin#branch                                   0
vdd#branch                        -1.89165e-10

 Reference value :  2.30814e-08
 Reference value :  5.26988e-08
 Reference value :  8.32338e-08
 Reference value :  1.15460e-07
 Reference value :  1.45185e-07
 Reference value :  1.76430e-07
 Reference value :  2.05289e-07
 Reference value :  2.33574e-07
 Reference value :  2.60294e-07
 Reference value :  2.89375e-07
 Reference value :  3.19090e-07
No. of Data Rows : 68030

  Measurements for Transient Analysis

tphl                =  3.19515e-11 targ=  2.84701e-08 trig=  2.84381e-08
tplh                =  1.17669e-09 targ=  1.08491e-07 trig=  1.07314e-07
i_vdd_avg           =  -7.65200e-07 from=  1.00000e-08 to=  3.30000e-07
power_avg_uw        =  1.49309e+00


Total analysis time (seconds) = 3.90031

Total elapsed time (seconds) = 3.992 

Total DRAM available = 16384.000 MB.
DRAM currently available =   92.500 MB.
Maximum ngspice program size =   18.359 MB.
Current ngspice program size =   18.359 MB.

