
Note: No compatibility mode selected!


Circuit: GF180MCU library cell nand2_4 A1_to_ZN__A2=1

Doing analysis at TEMP = -32.276512 and TNOM = 27.000000

Using SPARSE 1.3 as Direct Linear Solver

Initial Transient Solution
--------------------------

Node                                   Voltage
----                                   -------
vdd                                     1.8893
a1                                           0
a2                                      1.8893
xu1.net_0_0                        4.17598e-13
zn                                      1.8893
xu1.net_0_1                        4.17615e-13
xu1.net_0_2                        4.17598e-13
xu1.net_0_3                        4.17615e-13
vfix_a2#branch                               0
vin#branch                                   0
vdd#branch                        -7.59758e-12

 Reference value :  4.02959e-08
 Reference value :  8.88509e-08
 Reference value :  1.40529e-07
 Reference value :  1.90128e-07
 Reference value :  2.40666e-07
 Reference value :  2.88534e-07
No. of Data Rows : 68034

  Measurements for Transient Analysis

tphl                =  2.18523e-09 targ=  3.04794e-08 trig=  2.82942e-08
tplh                =  3.53706e-09 targ=  1.10420e-07 trig=  1.06883e-07
i_vdd_avg           =  -1.66293e-06 from=  1.00000e-08 to=  3.30004e-07
power_avg_uw        =  3.14177e+00


Total analysis time (seconds) = 2.11633

Total elapsed time (seconds) = 2.173 

Total DRAM available = 16384.000 MB.
DRAM currently available =   94.203 MB.
Maximum ngspice program size =   15.766 MB.
Current ngspice program size =   15.766 MB.

