
Note: No compatibility mode selected!


Circuit: GF180MCU library cell inv_4 I_to_ZN

Doing analysis at TEMP = 64.117182 and TNOM = 27.000000

Using SPARSE 1.3 as Direct Linear Solver

Initial Transient Solution
--------------------------

Node                                   Voltage
----                                   -------
vdd                                    1.97013
i                                            0
zn                                     1.97013
vin#branch                                   0
vdd#branch                        -8.05402e-12

 Reference value :  7.82846e-08
 Reference value :  1.77877e-07
 Reference value :  2.84132e-07
No. of Data Rows : 68030

  Measurements for Transient Analysis

tphl                =  4.63691e-10 targ=  2.60447e-08 trig=  2.55810e-08
tplh                =  9.79983e-10 targ=  9.97231e-08 trig=  9.87431e-08
i_vdd_avg           =  -2.02701e-07 from=  1.00000e-08 to=  3.30002e-07
power_avg_uw        =  3.99348e-01


Total analysis time (seconds) = 1.0333

Total elapsed time (seconds) = 1.078 

Total DRAM available = 16384.000 MB.
DRAM currently available =  123.516 MB.
Maximum ngspice program size =   12.734 MB.
Current ngspice program size =   12.703 MB.

