
Note: No compatibility mode selected!


Circuit: GF180MCU library cell xor2_1 A1_to_Z__A2=0

Doing analysis at TEMP = 62.675557 and TNOM = 27.000000

Using SPARSE 1.3 as Direct Linear Solver

Initial Transient Solution
--------------------------

Node                                   Voltage
----                                   -------
vdd                                    1.93476
a1                                           0
a2                                           0
xu1.i                                  1.93476
z                                  3.47826e-08
xu1.net_0                          1.71449e-08
xu1.net_2                              1.93476
xu1.net_1                              0.61366
vfix_a2#branch                               0
vin#branch                                   0
vdd#branch                        -7.72441e-11

 Reference value :  4.71216e-08
 Reference value :  1.18681e-07
 Reference value :  1.93627e-07
 Reference value :  2.62057e-07
 Reference value :  3.35636e-07
No. of Data Rows : 68032

  Measurements for Transient Analysis

tplh                =  2.59768e-09 targ=  2.98722e-08 trig=  2.72745e-08
tphl                =  2.30291e-09 targ=  1.06127e-07 trig=  1.03824e-07
i_vdd_avg           =  -8.68385e-07 from=  1.00000e-08 to=  3.30001e-07
power_avg_uw        =  1.68012e+00


Total analysis time (seconds) = 1.53947

Total elapsed time (seconds) = 1.610 

Total DRAM available = 16384.000 MB.
DRAM currently available =  100.250 MB.
Maximum ngspice program size =   17.156 MB.
Current ngspice program size =   17.156 MB.

