
Note: No compatibility mode selected!


Circuit: GF180MCU library cell inv_1 I_to_ZN

Doing analysis at TEMP = 117.243680 and TNOM = 27.000000

Using SPARSE 1.3 as Direct Linear Solver

Initial Transient Solution
--------------------------

Node                                   Voltage
----                                   -------
vdd                                    1.80969
i                                            0
zn                                     1.80969
vin#branch                                   0
vdd#branch                         -1.7145e-10

 Reference value :  1.98532e-07
No. of Data Rows : 68032

  Measurements for Transient Analysis

tphl                =  3.38330e-09 targ=  3.03681e-08 trig=  2.69848e-08
tplh                =  6.27288e-09 targ=  1.09227e-07 trig=  1.02954e-07
i_vdd_avg           =  -2.32829e-06 from=  1.00000e-08 to=  3.30002e-07
power_avg_uw        =  4.21350e+00


Total analysis time (seconds) = 0.541542

Total elapsed time (seconds) = 0.605 

Total DRAM available = 16384.000 MB.
DRAM currently available =  109.594 MB.
Maximum ngspice program size =   15.000 MB.
Current ngspice program size =   15.000 MB.

