
Note: No compatibility mode selected!


Circuit: GF180MCU library cell aoi21_1 A1_to_ZN__A2=1,B=0

Doing analysis at TEMP = 97.461706 and TNOM = 27.000000

Using SPARSE 1.3 as Direct Linear Solver

Initial Transient Solution
--------------------------

Node                                   Voltage
----                                   -------
vdd                                    1.68252
a1                                           0
a2                                     1.68252
b                                            0
xu1.net_0                          3.63347e-07
zn                                     1.68251
xu1.net_1                              1.68251
vfix_b#branch                                0
vfix_a2#branch                               0
vin#branch                                   0
vdd#branch                        -1.38619e-10

 Reference value :  7.50103e-08
 Reference value :  1.82803e-07
 Reference value :  2.96578e-07
No. of Data Rows : 68034

  Measurements for Transient Analysis

tphl                =  4.96075e-09 targ=  3.35322e-08 trig=  2.85714e-08
tplh                =  1.07450e-08 targ=  1.18459e-07 trig=  1.07714e-07
i_vdd_avg           =  -1.69665e-06 from=  1.00000e-08 to=  3.30003e-07
power_avg_uw        =  2.85464e+00


Total analysis time (seconds) = 1.00479

Total elapsed time (seconds) = 1.083 

Total DRAM available = 16384.000 MB.
DRAM currently available =   84.031 MB.
Maximum ngspice program size =   18.422 MB.
Current ngspice program size =   18.422 MB.

