
Note: No compatibility mode selected!


Circuit: GF180MCU library cell mux2_4 I0_to_Z__I1=0,S=0

Doing analysis at TEMP = 82.639718 and TNOM = 27.000000

Using SPARSE 1.3 as Direct Linear Solver

Initial Transient Solution
--------------------------

Node                                   Voltage
----                                   -------
vdd                                    1.96115
i0                                           0
i1                                           0
s                                            0
xu1.int04                              1.96115
z                                  1.24548e-08
xu1.net_1                            0.0423255
xu1.net_3                              1.42224
xu1.sel1_n                             1.96115
xu1.net_0                              1.96115
xu1.net_2                              1.96115
vfix_s#branch                                0
vfix_i1#branch                               0
vin#branch                                   0
vdd#branch                        -2.11604e-11

 Reference value :  3.75679e-08
 Reference value :  8.44829e-08
 Reference value :  1.25523e-07
 Reference value :  1.62958e-07
 Reference value :  1.98653e-07
 Reference value :  2.37628e-07
 Reference value :  2.77743e-07
 Reference value :  3.17733e-07
No. of Data Rows : 68032

  Measurements for Transient Analysis

tplh                =  1.60395e-09 targ=  3.14242e-08 trig=  2.98202e-08
tphl                =  3.25830e-09 targ=  1.14719e-07 trig=  1.11461e-07
i_vdd_avg           =  -6.52144e-07 from=  1.00000e-08 to=  3.30003e-07
power_avg_uw        =  1.27895e+00


Total analysis time (seconds) = 2.69857

Total elapsed time (seconds) = 2.761 

Total DRAM available = 16384.000 MB.
DRAM currently available =  104.078 MB.
Maximum ngspice program size =   13.891 MB.
Current ngspice program size =   13.891 MB.

