
Note: No compatibility mode selected!


Circuit: GF180MCU library cell nand3_4 A1_to_ZN__A2=1,A3=1

Doing analysis at TEMP = -25.758559 and TNOM = 27.000000

Using SPARSE 1.3 as Direct Linear Solver

Initial Transient Solution
--------------------------

Node                                   Voltage
----                                   -------
vdd                                    1.87879
a1                                           0
a2                                     1.87879
a3                                     1.87879
xu1.net_1_3                        4.14781e-11
xu1.net_0                          8.29562e-11
xu1.net_1_2                        4.14781e-11
xu1.net_1_1                        4.14781e-11
xu1.net_1_0                        4.14782e-11
xu1.net_0_0                        8.29563e-11
zn                                     1.87879
vfix_a3#branch                               0
vfix_a2#branch                               0
vin#branch                                   0
vdd#branch                        -7.60283e-12

 Reference value :  2.61175e-08
 Reference value :  5.81385e-08
 Reference value :  8.92335e-08
 Reference value :  1.20020e-07
 Reference value :  1.51235e-07
 Reference value :  1.82235e-07
 Reference value :  2.11884e-07
 Reference value :  2.39894e-07
 Reference value :  2.68155e-07
 Reference value :  2.98695e-07
 Reference value :  3.29015e-07
No. of Data Rows : 68032

  Measurements for Transient Analysis

tphl                =  1.23073e-09 targ=  2.65887e-08 trig=  2.53580e-08
tplh                =  1.58195e-09 targ=  9.96560e-08 trig=  9.80740e-08
i_vdd_avg           =  -1.75066e-06 from=  1.00000e-08 to=  3.30005e-07
power_avg_uw        =  3.28913e+00


Total analysis time (seconds) = 3.63969

Total elapsed time (seconds) = 3.704 

Total DRAM available = 16384.000 MB.
DRAM currently available =   85.172 MB.
Maximum ngspice program size =   14.531 MB.
Current ngspice program size =   14.531 MB.

