
Note: No compatibility mode selected!


Circuit: GF180MCU library cell aoi21_4 A1_to_ZN__A2=1,B=0

Doing analysis at TEMP = 101.082340 and TNOM = 27.000000

Using SPARSE 1.3 as Direct Linear Solver

Initial Transient Solution
--------------------------

Node                                   Voltage
----                                   -------
vdd                                     1.9099
a1                                           0
a2                                      1.9099
b                                            0
xu1.net_0_0                         4.2126e-07
zn                                      1.9099
xu1.net_0_1                         4.2126e-07
xu1.net_0_2                         4.2126e-07
xu1.net_0_3                         4.2126e-07
xu1.net_1                               1.9099
vfix_b#branch                                0
vfix_a2#branch                               0
vin#branch                                   0
vdd#branch                         -7.2621e-10

 Reference value :  2.26364e-08
 Reference value :  5.25422e-08
 Reference value :  8.40822e-08
 Reference value :  1.17302e-07
 Reference value :  1.49877e-07
 Reference value :  1.81152e-07
 Reference value :  2.13537e-07
 Reference value :  2.42252e-07
 Reference value :  2.69822e-07
 Reference value :  3.01562e-07
 Reference value :  3.31657e-07
No. of Data Rows : 68032

  Measurements for Transient Analysis

tphl                =  3.40521e-10 targ=  2.55304e-08 trig=  2.51898e-08
tplh                =  9.04339e-10 targ=  9.84738e-08 trig=  9.75695e-08
i_vdd_avg           =  -4.94900e-07 from=  1.00000e-08 to=  3.30002e-07
power_avg_uw        =  9.45211e-01


Total analysis time (seconds) = 3.50513

Total elapsed time (seconds) = 3.575 

Total DRAM available = 16384.000 MB.
DRAM currently available =  132.094 MB.
Maximum ngspice program size =   14.312 MB.
Current ngspice program size =   14.312 MB.

