
Note: No compatibility mode selected!


Circuit: GF180MCU library cell aoi21_4 A1_to_ZN__A2=1,B=0

Doing analysis at TEMP = 106.914960 and TNOM = 27.000000

Using SPARSE 1.3 as Direct Linear Solver

Initial Transient Solution
--------------------------

Node                                   Voltage
----                                   -------
vdd                                    1.74375
a1                                           0
a2                                     1.74375
b                                            0
xu1.net_0_0                        4.92857e-09
zn                                     1.74375
xu1.net_0_1                        4.92857e-09
xu1.net_0_2                        4.92857e-09
xu1.net_0_3                        4.92857e-09
xu1.net_1                              1.74375
vfix_b#branch                                0
vfix_a2#branch                               0
vin#branch                                   0
vdd#branch                         -1.8214e-11

 Reference value :  2.96582e-08
 Reference value :  6.08982e-08
 Reference value :  9.24482e-08
 Reference value :  1.22624e-07
 Reference value :  1.54589e-07
 Reference value :  1.87683e-07
 Reference value :  2.18533e-07
 Reference value :  2.48658e-07
 Reference value :  2.77384e-07
 Reference value :  3.07559e-07
 Reference value :  3.37739e-07
No. of Data Rows : 68032

  Measurements for Transient Analysis

tphl                =  1.88016e-09 targ=  2.76280e-08 trig=  2.57478e-08
tplh                =  3.92108e-09 targ=  1.03165e-07 trig=  9.92435e-08
i_vdd_avg           =  -9.31145e-07 from=  1.00000e-08 to=  3.30004e-07
power_avg_uw        =  1.62368e+00


Total analysis time (seconds) = 3.41841

Total elapsed time (seconds) = 3.475 

Total DRAM available = 16384.000 MB.
DRAM currently available =  127.438 MB.
Maximum ngspice program size =   14.391 MB.
Current ngspice program size =   14.391 MB.

