
Note: No compatibility mode selected!


Circuit: GF180MCU library cell xor2_4 A1_to_Z__A2=0

Doing analysis at TEMP = -8.099194 and TNOM = 27.000000

Using SPARSE 1.3 as Direct Linear Solver

Initial Transient Solution
--------------------------

Node                                   Voltage
----                                   -------
vdd                                    1.72128
a1                                           0
a2                                           0
xu1.net_2                           0.00339455
xu1.i                                  1.72128
xu1.net_0                          1.56111e-11
xu1.z_neg                              1.72128
z                                  9.88158e-09
xu1.net_1                              1.72128
vfix_a2#branch                               0
vin#branch                                   0
vdd#branch                        -1.24644e-11

 Reference value :  2.71175e-08
 Reference value :  7.14541e-08
 Reference value :  1.14266e-07
 Reference value :  1.55441e-07
 Reference value :  1.97984e-07
 Reference value :  2.40279e-07
 Reference value :  2.83516e-07
 Reference value :  3.24831e-07
No. of Data Rows : 68030

  Measurements for Transient Analysis

tplh                =  1.70878e-09 targ=  2.73821e-08 trig=  2.56733e-08
tphl                =  2.56355e-09 targ=  1.01583e-07 trig=  9.90198e-08
i_vdd_avg           =  -6.26145e-07 from=  1.00000e-08 to=  3.30001e-07
power_avg_uw        =  1.07777e+00


Total analysis time (seconds) = 2.5948

Total elapsed time (seconds) = 2.684 

Total DRAM available = 16384.000 MB.
DRAM currently available =  102.312 MB.
Maximum ngspice program size =   16.891 MB.
Current ngspice program size =   16.891 MB.

