
Note: No compatibility mode selected!


Circuit: GF180MCU library cell xor2_1 A1_to_Z__A2=0

Doing analysis at TEMP = 10.951485 and TNOM = 27.000000

Using SPARSE 1.3 as Direct Linear Solver

Initial Transient Solution
--------------------------

Node                                   Voltage
----                                   -------
vdd                                    1.62251
a1                                           0
a2                                           0
xu1.i                                  1.62251
z                                   3.7362e-08
xu1.net_0                          1.14084e-09
xu1.net_2                              1.62251
xu1.net_1                             0.728992
vfix_a2#branch                               0
vin#branch                                   0
vdd#branch                        -9.33721e-12

 Reference value :  4.17636e-08
 Reference value :  1.11555e-07
 Reference value :  1.84391e-07
 Reference value :  2.55295e-07
 Reference value :  3.24620e-07
No. of Data Rows : 68032

  Measurements for Transient Analysis

tplh                =  1.77007e-08 targ=  4.18963e-08 trig=  2.41955e-08
tphl                =  4.47678e-09 targ=  9.90634e-08 trig=  9.45866e-08
i_vdd_avg           =  -2.04829e-06 from=  1.00000e-08 to=  3.30005e-07
power_avg_uw        =  3.32337e+00


Total analysis time (seconds) = 1.71085

Total elapsed time (seconds) = 1.805 

Total DRAM available = 16384.000 MB.
DRAM currently available =  128.922 MB.
Maximum ngspice program size =   17.297 MB.
Current ngspice program size =   17.297 MB.

