
Note: No compatibility mode selected!


Circuit: GF180MCU library cell nand3_4 A1_to_ZN__A2=1,A3=1

Doing analysis at TEMP = -1.366533 and TNOM = 27.000000

Using SPARSE 1.3 as Direct Linear Solver

Initial Transient Solution
--------------------------

Node                                   Voltage
----                                   -------
vdd                                    1.86503
a1                                           0
a2                                     1.86503
a3                                     1.86503
xu1.net_1_3                        1.52882e-11
xu1.net_0                          3.05763e-11
xu1.net_1_2                        1.52882e-11
xu1.net_1_1                        1.52882e-11
xu1.net_1_0                        1.52882e-11
xu1.net_0_0                        3.05763e-11
zn                                     1.86503
vfix_a3#branch                               0
vfix_a2#branch                               0
vin#branch                                   0
vdd#branch                        -7.51237e-12

 Reference value :  2.59025e-08
 Reference value :  5.96887e-08
 Reference value :  9.01287e-08
 Reference value :  1.21200e-07
 Reference value :  1.50745e-07
 Reference value :  1.83295e-07
 Reference value :  2.13509e-07
 Reference value :  2.44369e-07
 Reference value :  2.74015e-07
 Reference value :  3.04525e-07
 Reference value :  3.32300e-07
No. of Data Rows : 68032

  Measurements for Transient Analysis

tphl                =  8.75261e-10 targ=  2.60183e-08 trig=  2.51431e-08
tplh                =  1.16739e-09 targ=  9.85966e-08 trig=  9.74292e-08
i_vdd_avg           =  -6.07896e-07 from=  1.00000e-08 to=  3.30005e-07
power_avg_uw        =  1.13374e+00


Total analysis time (seconds) = 3.72996

Total elapsed time (seconds) = 3.803 

Total DRAM available = 16384.000 MB.
DRAM currently available =   92.781 MB.
Maximum ngspice program size =   14.828 MB.
Current ngspice program size =   14.828 MB.

