
Note: No compatibility mode selected!


Circuit: GF180MCU library cell oai21_1 A1_to_ZN__A2=0,B=1

Doing analysis at TEMP = 59.250070 and TNOM = 27.000000

Using SPARSE 1.3 as Direct Linear Solver

Initial Transient Solution
--------------------------

Node                                   Voltage
----                                   -------
vdd                                    1.79368
a1                                           0
a2                                           0
b                                      1.79368
zn                                     1.79368
xu1.net_0                          3.82802e-10
xu1.net_1                              1.79368
vfix_b#branch                                0
vfix_a2#branch                               0
vin#branch                                   0
vdd#branch                        -3.65099e-12

 Reference value :  9.07687e-08
 Reference value :  2.03229e-07
 Reference value :  2.99210e-07
No. of Data Rows : 68032

  Measurements for Transient Analysis

tphl                =  5.96689e-09 targ=  3.44875e-08 trig=  2.85206e-08
tplh                =  1.34702e-08 targ=  1.21032e-07 trig=  1.07562e-07
i_vdd_avg           =  -9.94460e-07 from=  1.00000e-08 to=  3.30005e-07
power_avg_uw        =  1.78375e+00


Total analysis time (seconds) = 1.02274

Total elapsed time (seconds) = 1.082 

Total DRAM available = 16384.000 MB.
DRAM currently available =  123.047 MB.
Maximum ngspice program size =   12.906 MB.
Current ngspice program size =   12.906 MB.

