
Note: No compatibility mode selected!


Circuit: GF180MCU library cell nor2_4 A1_to_ZN__A2=0

Doing analysis at TEMP = 46.996740 and TNOM = 27.000000

Using SPARSE 1.3 as Direct Linear Solver

Initial Transient Solution
--------------------------

Node                                   Voltage
----                                   -------
vdd                                    1.71817
a1                                           0
a2                                           0
zn                                     1.71817
xu1.net_0_0                            1.71817
xu1.net_0_1                            1.71817
xu1.net_0_2                            1.71817
xu1.net_0_3                            1.71817
vfix_a2#branch                               0
vin#branch                                   0
vdd#branch                        -4.86898e-11

 Reference value :  3.30375e-08
 Reference value :  8.20395e-08
 Reference value :  1.29961e-07
 Reference value :  1.78376e-07
 Reference value :  2.28344e-07
 Reference value :  2.74119e-07
 Reference value :  3.22991e-07
No. of Data Rows : 68030

  Measurements for Transient Analysis

tphl                =  1.79892e-09 targ=  3.08724e-08 trig=  2.90735e-08
tplh                =  4.50996e-09 targ=  1.13730e-07 trig=  1.09220e-07
i_vdd_avg           =  -1.91843e-06 from=  1.00000e-08 to=  3.30001e-07
power_avg_uw        =  3.29619e+00


Total analysis time (seconds) = 2.24193

Total elapsed time (seconds) = 2.330 

Total DRAM available = 16384.000 MB.
DRAM currently available =  134.375 MB.
Maximum ngspice program size =   18.375 MB.
Current ngspice program size =   18.375 MB.

