
Note: No compatibility mode selected!


Circuit: GF180MCU library cell xor2_4 A1_to_Z__A2=0

Doing analysis at TEMP = 6.663769 and TNOM = 27.000000

Using SPARSE 1.3 as Direct Linear Solver

Initial Transient Solution
--------------------------

Node                                   Voltage
----                                   -------
vdd                                    1.97077
a1                                           0
a2                                           0
xu1.net_2                          0.000917392
xu1.i                                  1.97077
xu1.net_0                          2.91349e-12
xu1.z_neg                              1.97077
z                                  1.35313e-08
xu1.net_1                              1.97077
vfix_a2#branch                               0
vin#branch                                   0
vdd#branch                        -1.42026e-11

 Reference value :  2.75125e-08
 Reference value :  6.76754e-08
 Reference value :  1.09205e-07
 Reference value :  1.50853e-07
 Reference value :  1.91188e-07
 Reference value :  2.33570e-07
 Reference value :  2.77523e-07
 Reference value :  3.20248e-07
No. of Data Rows : 68034

  Measurements for Transient Analysis

tplh                =  2.84674e-09 targ=  3.07807e-08 trig=  2.79339e-08
tphl                =  4.36543e-09 targ=  1.10167e-07 trig=  1.05802e-07
i_vdd_avg           =  -9.18876e-07 from=  1.00000e-08 to=  3.30003e-07
power_avg_uw        =  1.81089e+00


Total analysis time (seconds) = 2.65267

Total elapsed time (seconds) = 2.731 

Total DRAM available = 16384.000 MB.
DRAM currently available =  131.625 MB.
Maximum ngspice program size =   17.844 MB.
Current ngspice program size =   17.844 MB.

