
Note: No compatibility mode selected!


Circuit: GF180MCU library cell inv_4 I_to_ZN

Doing analysis at TEMP = 26.178876 and TNOM = 27.000000

Using SPARSE 1.3 as Direct Linear Solver

Initial Transient Solution
--------------------------

Node                                   Voltage
----                                   -------
vdd                                     1.8468
i                                            0
zn                                      1.8468
vin#branch                                   0
vdd#branch                        -7.43298e-12

 Reference value :  1.08317e-07
 Reference value :  2.03357e-07
 Reference value :  3.03267e-07
No. of Data Rows : 68032

  Measurements for Transient Analysis

tphl                =  9.31710e-10 targ=  2.55990e-08 trig=  2.46673e-08
tplh                =  1.82644e-09 targ=  9.78282e-08 trig=  9.60018e-08
i_vdd_avg           =  -1.22735e-06 from=  1.00000e-08 to=  3.30002e-07
power_avg_uw        =  2.26668e+00


Total analysis time (seconds) = 0.974376

Total elapsed time (seconds) = 1.017 

Total DRAM available = 16384.000 MB.
DRAM currently available =   99.688 MB.
Maximum ngspice program size =   13.703 MB.
Current ngspice program size =   13.469 MB.

