
Note: No compatibility mode selected!


Circuit: GF180MCU library cell nand2_1 A1_to_ZN__A2=1

Doing analysis at TEMP = 19.636950 and TNOM = 27.000000

Using SPARSE 1.3 as Direct Linear Solver

Initial Transient Solution
--------------------------

Node                                   Voltage
----                                   -------
vdd                                     1.7686
a1                                           0
a2                                      1.7686
xu1.net_0                          2.82129e-09
zn                                      1.7686
vfix_a2#branch                               0
vin#branch                                   0
vdd#branch                        -2.43883e-12

 Reference value :  9.57823e-08
 Reference value :  2.68187e-07
No. of Data Rows : 68032

  Measurements for Transient Analysis

tphl                =  7.29452e-10 targ=  2.57469e-08 trig=  2.50174e-08
tplh                =  1.06427e-09 targ=  9.81165e-08 trig=  9.70523e-08
i_vdd_avg           =  -2.39756e-07 from=  1.00000e-08 to=  3.30002e-07
power_avg_uw        =  4.24032e-01


Total analysis time (seconds) = 0.685737

Total elapsed time (seconds) = 0.773 

Total DRAM available = 16384.000 MB.
DRAM currently available =  120.531 MB.
Maximum ngspice program size =   18.141 MB.
Current ngspice program size =   18.141 MB.

