
Note: No compatibility mode selected!


Circuit: GF180MCU library cell inv_4 I_to_ZN

Doing analysis at TEMP = 56.647496 and TNOM = 27.000000

Using SPARSE 1.3 as Direct Linear Solver

Initial Transient Solution
--------------------------

Node                                   Voltage
----                                   -------
vdd                                    1.91484
i                                            0
zn                                     1.91484
vin#branch                                   0
vdd#branch                        -9.20134e-12

 Reference value :  6.09101e-08
 Reference value :  1.59738e-07
 Reference value :  2.63310e-07
No. of Data Rows : 68034

  Measurements for Transient Analysis

tphl                =  -1.38489e-10 targ=  2.83078e-08 trig=  2.84463e-08
tplh                =  1.09233e-09 targ=  1.08431e-07 trig=  1.07339e-07
i_vdd_avg           =  -2.41448e-07 from=  1.00000e-08 to=  3.30003e-07
power_avg_uw        =  4.62333e-01


Total analysis time (seconds) = 1.14639

Total elapsed time (seconds) = 1.225 

Total DRAM available = 16384.000 MB.
DRAM currently available =  109.328 MB.
Maximum ngspice program size =   17.250 MB.
Current ngspice program size =   17.250 MB.

