
Note: No compatibility mode selected!


Circuit: GF180MCU library cell nand2_1 A1_to_ZN__A2=1

Doing analysis at TEMP = 7.444705 and TNOM = 27.000000

Using SPARSE 1.3 as Direct Linear Solver

Initial Transient Solution
--------------------------

Node                                   Voltage
----                                   -------
vdd                                    1.63629
a1                                           0
a2                                     1.63629
xu1.net_0                          1.06532e-09
zn                                     1.63629
vfix_a2#branch                               0
vin#branch                                   0
vdd#branch                        -1.88146e-12

 Reference value :  1.16744e-07
 Reference value :  2.85844e-07
No. of Data Rows : 68032

  Measurements for Transient Analysis

tphl                =  2.39791e-09 targ=  3.19708e-08 trig=  2.95729e-08
tplh                =  4.24854e-09 targ=  1.14967e-07 trig=  1.10719e-07
i_vdd_avg           =  -4.91667e-07 from=  1.00000e-08 to=  3.30004e-07
power_avg_uw        =  8.04509e-01


Total analysis time (seconds) = 0.659997

Total elapsed time (seconds) = 0.749 

Total DRAM available = 16384.000 MB.
DRAM currently available =  120.531 MB.
Maximum ngspice program size =   17.703 MB.
Current ngspice program size =   17.703 MB.

