
Note: No compatibility mode selected!


Circuit: GF180MCU library cell nand3_1 A1_to_ZN__A2=1,A3=1

Doing analysis at TEMP = -17.275912 and TNOM = 27.000000

Using SPARSE 1.3 as Direct Linear Solver

Initial Transient Solution
--------------------------

Node                                   Voltage
----                                   -------
vdd                                      1.803
a1                                           0
a2                                       1.803
a3                                       1.803
xu1.net_1                          9.16746e-14
xu1.net_0                          1.83293e-13
zn                                       1.803
vfix_a3#branch                               0
vfix_a2#branch                               0
vin#branch                                   0
vdd#branch                        -1.81301e-12

 Reference value :  6.82912e-08
 Reference value :  1.80480e-07
 Reference value :  2.83745e-07
No. of Data Rows : 68034

  Measurements for Transient Analysis

tphl                =  5.35140e-09 targ=  3.46158e-08 trig=  2.92644e-08
tplh                =  6.93123e-09 targ=  1.16724e-07 trig=  1.09793e-07
i_vdd_avg           =  -5.69870e-07 from=  1.00000e-08 to=  3.30005e-07
power_avg_uw        =  1.02747e+00


Total analysis time (seconds) = 1.02756

Total elapsed time (seconds) = 1.095 

Total DRAM available = 16384.000 MB.
DRAM currently available =   98.812 MB.
Maximum ngspice program size =   15.453 MB.
Current ngspice program size =   15.453 MB.

