
Note: No compatibility mode selected!


Circuit: GF180MCU library cell nand3_4 A1_to_ZN__A2=1,A3=1

Doing analysis at TEMP = 39.432525 and TNOM = 27.000000

Using SPARSE 1.3 as Direct Linear Solver

Initial Transient Solution
--------------------------

Node                                   Voltage
----                                   -------
vdd                                    1.62598
a1                                           0
a2                                     1.62598
a3                                     1.62598
xu1.net_1_3                        1.24264e-08
xu1.net_0                          2.48529e-08
xu1.net_1_2                        1.24264e-08
xu1.net_1_1                        1.24264e-08
xu1.net_1_0                        1.24264e-08
xu1.net_0_0                        2.48529e-08
zn                                     1.62598
vfix_a3#branch                               0
vfix_a2#branch                               0
vin#branch                                   0
vdd#branch                        -1.65335e-11

 Reference value :  2.71325e-08
 Reference value :  5.83496e-08
 Reference value :  8.74696e-08
 Reference value :  1.16987e-07
 Reference value :  1.48172e-07
 Reference value :  1.76832e-07
 Reference value :  2.05825e-07
 Reference value :  2.37285e-07
 Reference value :  2.66847e-07
 Reference value :  2.95582e-07
 Reference value :  3.28637e-07
No. of Data Rows : 68030

  Measurements for Transient Analysis

tphl                =  1.74181e-09 targ=  2.73804e-08 trig=  2.56385e-08
tplh                =  2.19157e-09 targ=  1.01107e-07 trig=  9.89156e-08
i_vdd_avg           =  -1.61044e-06 from=  1.00000e-08 to=  3.30002e-07
power_avg_uw        =  2.61855e+00


Total analysis time (seconds) = 3.66554

Total elapsed time (seconds) = 3.737 

Total DRAM available = 16384.000 MB.
DRAM currently available =   99.266 MB.
Maximum ngspice program size =   17.047 MB.
Current ngspice program size =   17.047 MB.

