
Note: No compatibility mode selected!


Circuit: GF180MCU library cell inv_4 I_to_ZN

Doing analysis at TEMP = 4.860377 and TNOM = 27.000000

Using SPARSE 1.3 as Direct Linear Solver

Initial Transient Solution
--------------------------

Node                                   Voltage
----                                   -------
vdd                                    1.88406
i                                            0
zn                                     1.88406
vin#branch                                   0
vdd#branch                        -7.59902e-12

 Reference value :  6.59313e-08
 Reference value :  1.64825e-07
 Reference value :  2.68031e-07
No. of Data Rows : 68032

  Measurements for Transient Analysis

tphl                =  1.81891e-09 targ=  2.95733e-08 trig=  2.77544e-08
tplh                =  3.37686e-09 targ=  1.08640e-07 trig=  1.05263e-07
i_vdd_avg           =  -1.92680e-06 from=  1.00000e-08 to=  3.30000e-07
power_avg_uw        =  3.63021e+00


Total analysis time (seconds) = 1.16321

Total elapsed time (seconds) = 1.220 

Total DRAM available = 16384.000 MB.
DRAM currently available =  127.641 MB.
Maximum ngspice program size =   17.812 MB.
Current ngspice program size =   17.812 MB.

