
Note: No compatibility mode selected!


Circuit: GF180MCU library cell oai21_1 A1_to_ZN__A2=0,B=1

Doing analysis at TEMP = 89.756514 and TNOM = 27.000000

Using SPARSE 1.3 as Direct Linear Solver

Initial Transient Solution
--------------------------

Node                                   Voltage
----                                   -------
vdd                                    1.92178
a1                                           0
a2                                           0
b                                      1.92178
zn                                     1.92178
xu1.net_0                          3.16539e-09
xu1.net_1                              1.92178
vfix_b#branch                                0
vfix_a2#branch                               0
vin#branch                                   0
vdd#branch                        -4.23151e-12

 Reference value :  8.05403e-08
 Reference value :  1.82493e-07
 Reference value :  2.89698e-07
No. of Data Rows : 68034

  Measurements for Transient Analysis

tphl                =  7.84721e-09 targ=  3.37136e-08 trig=  2.58664e-08
tplh                =  2.02361e-08 targ=  1.19835e-07 trig=  9.95992e-08
i_vdd_avg           =  -2.18480e-06 from=  1.00000e-08 to=  3.30003e-07
power_avg_uw        =  4.19870e+00


Total analysis time (seconds) = 1.03028

Total elapsed time (seconds) = 1.101 

Total DRAM available = 16384.000 MB.
DRAM currently available =  132.609 MB.
Maximum ngspice program size =   14.688 MB.
Current ngspice program size =   14.688 MB.

