
Note: No compatibility mode selected!


Circuit: GF180MCU library cell inv_4 I_to_ZN

Doing analysis at TEMP = 85.225114 and TNOM = 27.000000

Using SPARSE 1.3 as Direct Linear Solver

Initial Transient Solution
--------------------------

Node                                   Voltage
----                                   -------
vdd                                    1.73369
i                                            0
zn                                     1.73369
vin#branch                                   0
vdd#branch                        -1.56228e-10

 Reference value :  7.63330e-08
 Reference value :  1.78243e-07
 Reference value :  2.76248e-07
No. of Data Rows : 68032

  Measurements for Transient Analysis

tphl                =  2.79376e-10 targ=  3.02346e-08 trig=  2.99552e-08
tplh                =  2.29761e-09 targ=  1.14163e-07 trig=  1.11866e-07
i_vdd_avg           =  -1.02474e-06 from=  1.00000e-08 to=  3.30003e-07
power_avg_uw        =  1.77658e+00


Total analysis time (seconds) = 1.08569

Total elapsed time (seconds) = 1.147 

Total DRAM available = 16384.000 MB.
DRAM currently available =  106.781 MB.
Maximum ngspice program size =   15.375 MB.
Current ngspice program size =   15.375 MB.

