
Note: No compatibility mode selected!


Circuit: GF180MCU library cell inv_1 I_to_ZN

Doing analysis at TEMP = 49.002600 and TNOM = 27.000000

Using SPARSE 1.3 as Direct Linear Solver

Initial Transient Solution
--------------------------

Node                                   Voltage
----                                   -------
vdd                                    1.79952
i                                            0
zn                                     1.79952
vin#branch                                   0
vdd#branch                        -6.85932e-12

 Reference value :  1.87143e-07
No. of Data Rows : 68032

  Measurements for Transient Analysis

tphl                =  2.70912e-09 targ=  3.11788e-08 trig=  2.84696e-08
tplh                =  4.93567e-09 targ=  1.12345e-07 trig=  1.07409e-07
i_vdd_avg           =  -1.33660e-06 from=  1.00000e-08 to=  3.30001e-07
power_avg_uw        =  2.40524e+00


Total analysis time (seconds) = 0.437758

Total elapsed time (seconds) = 0.526 

Total DRAM available = 16384.000 MB.
DRAM currently available =   74.906 MB.
Maximum ngspice program size =   18.578 MB.
Current ngspice program size =   18.578 MB.

