
Note: No compatibility mode selected!


Circuit: GF180MCU library cell nand2_1 A1_to_ZN__A2=1

Doing analysis at TEMP = 54.201382 and TNOM = 27.000000

Using SPARSE 1.3 as Direct Linear Solver

Initial Transient Solution
--------------------------

Node                                   Voltage
----                                   -------
vdd                                     1.8021
a1                                           0
a2                                      1.8021
xu1.net_0                          3.19456e-08
zn                                      1.8021
vfix_a2#branch                               0
vin#branch                                   0
vdd#branch                        -8.77133e-12

 Reference value :  1.14749e-07
 Reference value :  2.69079e-07
No. of Data Rows : 68034

  Measurements for Transient Analysis

tphl                =  3.27640e-09 targ=  2.89679e-08 trig=  2.56915e-08
tplh                =  4.51608e-09 targ=  1.03591e-07 trig=  9.90745e-08
i_vdd_avg           =  -1.70297e-06 from=  1.00000e-08 to=  3.30004e-07
power_avg_uw        =  3.06892e+00


Total analysis time (seconds) = 0.731646

Total elapsed time (seconds) = 0.817 

Total DRAM available = 16384.000 MB.
DRAM currently available =  119.094 MB.
Maximum ngspice program size =   17.047 MB.
Current ngspice program size =   17.047 MB.

