
Note: No compatibility mode selected!


Circuit: GF180MCU library cell oai21_4 A1_to_ZN__A2=0,B=1

Doing analysis at TEMP = 94.931762 and TNOM = 27.000000

Using SPARSE 1.3 as Direct Linear Solver

Initial Transient Solution
--------------------------

Node                                   Voltage
----                                   -------
vdd                                    1.81757
a1                                           0
a2                                           0
b                                      1.81757
zn                                     1.81757
xu1.net_0                          4.58481e-09
xu1.net_1_0                            1.81757
xu1.net_1_1                            1.81757
xu1.net_1_2                            1.81757
xu1.net_1_3                            1.81757
vfix_b#branch                                0
vfix_a2#branch                               0
vin#branch                                   0
vdd#branch                        -1.65682e-11

 Reference value :  2.34514e-08
 Reference value :  5.51390e-08
 Reference value :  8.59090e-08
 Reference value :  1.17190e-07
 Reference value :  1.48470e-07
 Reference value :  1.81035e-07
 Reference value :  2.11279e-07
 Reference value :  2.42344e-07
 Reference value :  2.70404e-07
 Reference value :  2.99805e-07
 Reference value :  3.29600e-07
No. of Data Rows : 68030

  Measurements for Transient Analysis

tphl                =  4.02545e-09 targ=  3.34837e-08 trig=  2.94582e-08
tplh                =  8.13251e-09 targ=  1.18507e-07 trig=  1.10375e-07
i_vdd_avg           =  -1.71233e-06 from=  1.00000e-08 to=  3.30000e-07
power_avg_uw        =  3.11228e+00


Total analysis time (seconds) = 3.64489

Total elapsed time (seconds) = 3.711 

Total DRAM available = 16384.000 MB.
DRAM currently available =   82.375 MB.
Maximum ngspice program size =   16.469 MB.
Current ngspice program size =   16.469 MB.

