
Note: No compatibility mode selected!


Circuit: GF180MCU library cell inv_4 I_to_ZN

Doing analysis at TEMP = -10.769781 and TNOM = 27.000000

Using SPARSE 1.3 as Direct Linear Solver

Initial Transient Solution
--------------------------

Node                                   Voltage
----                                   -------
vdd                                    1.86469
i                                            0
zn                                     1.86469
vin#branch                                   0
vdd#branch                         -7.4989e-12

 Reference value :  7.21485e-08
 Reference value :  1.70925e-07
 Reference value :  2.69384e-07
No. of Data Rows : 68032

  Measurements for Transient Analysis

tphl                =  3.14735e-09 targ=  3.17979e-08 trig=  2.86505e-08
tplh                =  5.16626e-09 targ=  1.13118e-07 trig=  1.07952e-07
i_vdd_avg           =  -2.00945e-06 from=  1.00000e-08 to=  3.30005e-07
power_avg_uw        =  3.74702e+00


Total analysis time (seconds) = 1.13597

Total elapsed time (seconds) = 1.188 

Total DRAM available = 16384.000 MB.
DRAM currently available =  111.047 MB.
Maximum ngspice program size =   17.344 MB.
Current ngspice program size =   17.344 MB.

