
Note: No compatibility mode selected!


Circuit: GF180MCU library cell nand3_1 A1_to_ZN__A2=1,A3=1

Doing analysis at TEMP = 66.298497 and TNOM = 27.000000

Using SPARSE 1.3 as Direct Linear Solver

Initial Transient Solution
--------------------------

Node                                   Voltage
----                                   -------
vdd                                    1.92397
a1                                           0
a2                                     1.92397
a3                                     1.92397
xu1.net_1                          4.14618e-09
xu1.net_0                          8.29236e-09
zn                                     1.92397
vfix_a3#branch                               0
vfix_a2#branch                               0
vin#branch                                   0
vdd#branch                        -2.64671e-12

 Reference value :  7.28149e-08
 Reference value :  1.79997e-07
 Reference value :  2.75247e-07
No. of Data Rows : 68030

  Measurements for Transient Analysis

tphl                =  6.96616e-09 targ=  3.49598e-08 trig=  2.79937e-08
tplh                =  8.25147e-09 targ=  1.14233e-07 trig=  1.05981e-07
i_vdd_avg           =  -1.90854e-06 from=  1.00000e-08 to=  3.30002e-07
power_avg_uw        =  3.67196e+00


Total analysis time (seconds) = 1.09472

Total elapsed time (seconds) = 1.168 

Total DRAM available = 16384.000 MB.
DRAM currently available =  114.172 MB.
Maximum ngspice program size =   16.188 MB.
Current ngspice program size =   16.188 MB.

