
Note: No compatibility mode selected!


Circuit: GF180MCU library cell inv_4 I_to_ZN

Doing analysis at TEMP = 116.666050 and TNOM = 27.000000

Using SPARSE 1.3 as Direct Linear Solver

Initial Transient Solution
--------------------------

Node                                   Voltage
----                                   -------
vdd                                    1.62393
i                                            0
zn                                     1.62393
vin#branch                                   0
vdd#branch                        -9.68413e-12

 Reference value :  8.73596e-08
 Reference value :  1.88083e-07
 Reference value :  2.83002e-07
No. of Data Rows : 68030

  Measurements for Transient Analysis

tphl                =  2.18786e-09 targ=  3.17664e-08 trig=  2.95786e-08
tplh                =  4.13422e-09 targ=  1.14870e-07 trig=  1.10736e-07
i_vdd_avg           =  -4.61266e-07 from=  1.00000e-08 to=  3.30002e-07
power_avg_uw        =  7.49066e-01


Total analysis time (seconds) = 1.01279

Total elapsed time (seconds) = 1.061 

Total DRAM available = 16384.000 MB.
DRAM currently available =  161.531 MB.
Maximum ngspice program size =   16.078 MB.
Current ngspice program size =   16.078 MB.

