
Note: No compatibility mode selected!


Circuit: GF180MCU library cell nand3_4 A1_to_ZN__A2=1,A3=1

Doing analysis at TEMP = 54.586795 and TNOM = 27.000000

Using SPARSE 1.3 as Direct Linear Solver

Initial Transient Solution
--------------------------

Node                                   Voltage
----                                   -------
vdd                                    1.79774
a1                                           0
a2                                     1.79774
a3                                     1.79774
xu1.net_1_3                        1.32623e-10
xu1.net_0                          2.65247e-10
xu1.net_1_2                        1.32623e-10
xu1.net_1_1                        1.32623e-10
xu1.net_1_0                        1.32623e-10
xu1.net_0_0                        2.65247e-10
zn                                     1.79774
vfix_a3#branch                               0
vfix_a2#branch                               0
vin#branch                                   0
vdd#branch                        -7.29238e-12

 Reference value :  2.26614e-08
 Reference value :  5.29910e-08
 Reference value :  8.36110e-08
 Reference value :  1.13985e-07
 Reference value :  1.44810e-07
 Reference value :  1.76585e-07
 Reference value :  2.07816e-07
 Reference value :  2.38731e-07
 Reference value :  2.70200e-07
 Reference value :  3.04910e-07
No. of Data Rows : 68034

  Measurements for Transient Analysis

tphl                =  4.74310e-09 targ=  3.23449e-08 trig=  2.76018e-08
tplh                =  5.93536e-09 targ=  1.10741e-07 trig=  1.04805e-07
i_vdd_avg           =  -2.26512e-06 from=  1.00000e-08 to=  3.30005e-07
power_avg_uw        =  4.07210e+00


Total analysis time (seconds) = 3.29791

Total elapsed time (seconds) = 3.364 

Total DRAM available = 16384.000 MB.
DRAM currently available =   99.266 MB.
Maximum ngspice program size =   17.625 MB.
Current ngspice program size =   17.625 MB.

