
Note: No compatibility mode selected!


Circuit: GF180MCU library cell mux2_1 I0_to_Z__I1=0,S=0

Doing analysis at TEMP = 36.876410 and TNOM = 27.000000

Using SPARSE 1.3 as Direct Linear Solver

Initial Transient Solution
--------------------------

Node                                   Voltage
----                                   -------
vdd                                     1.8729
i0                                           0
i1                                           0
s                                            0
xu1.int04                               1.8729
z                                  8.43568e-09
xu1.net_1                            0.0471217
xu1.net_3                              1.42289
xu1.sel1_n                              1.8729
xu1.net_0                               1.8729
xu1.net_2                               1.8729
vfix_s#branch                                0
vfix_i1#branch                               0
vin#branch                                   0
vdd#branch                        -2.49795e-11

 Reference value :  5.10081e-08
 Reference value :  1.14003e-07
 Reference value :  1.68654e-07
 Reference value :  2.19853e-07
 Reference value :  2.74468e-07
 Reference value :  3.33524e-07
No. of Data Rows : 68032

  Measurements for Transient Analysis

tplh                =  1.40486e-09 targ=  3.11627e-08 trig=  2.97578e-08
tphl                =  3.08433e-09 targ=  1.14358e-07 trig=  1.11273e-07
i_vdd_avg           =  -8.47625e-07 from=  1.00000e-08 to=  3.30004e-07
power_avg_uw        =  1.58752e+00


Total analysis time (seconds) = 1.85872

Total elapsed time (seconds) = 1.963 

Total DRAM available = 16384.000 MB.
DRAM currently available =  103.156 MB.
Maximum ngspice program size =   18.656 MB.
Current ngspice program size =   18.656 MB.

