
Note: No compatibility mode selected!


Circuit: GF180MCU library cell nand3_4 A1_to_ZN__A2=1,A3=1

Doing analysis at TEMP = 116.124000 and TNOM = 27.000000

Using SPARSE 1.3 as Direct Linear Solver

Initial Transient Solution
--------------------------

Node                                   Voltage
----                                   -------
vdd                                    1.70543
a1                                           0
a2                                     1.70543
a3                                     1.70543
xu1.net_1_3                        8.70164e-07
xu1.net_0                          1.74033e-06
xu1.net_1_2                        8.70164e-07
xu1.net_1_1                        8.70164e-07
xu1.net_1_0                        8.70164e-07
xu1.net_0_0                        1.74033e-06
zn                                     1.70543
vfix_a3#branch                               0
vfix_a2#branch                               0
vin#branch                                   0
vdd#branch                        -6.22806e-10

 Reference value :  2.93625e-08
 Reference value :  6.11175e-08
 Reference value :  9.28025e-08
 Reference value :  1.22478e-07
 Reference value :  1.53753e-07
 Reference value :  1.85248e-07
 Reference value :  2.16253e-07
 Reference value :  2.44348e-07
 Reference value :  2.73773e-07
 Reference value :  3.02888e-07
 Reference value :  3.31248e-07
No. of Data Rows : 68032

  Measurements for Transient Analysis

tphl                =  1.08139e-09 targ=  2.81089e-08 trig=  2.70275e-08
tplh                =  1.85313e-09 targ=  1.04936e-07 trig=  1.03083e-07
i_vdd_avg           =  -8.51058e-07 from=  1.00000e-08 to=  3.30003e-07
power_avg_uw        =  1.45142e+00


Total analysis time (seconds) = 3.63066

Total elapsed time (seconds) = 3.693 

Total DRAM available = 16384.000 MB.
DRAM currently available =   87.203 MB.
Maximum ngspice program size =   15.484 MB.
Current ngspice program size =   15.484 MB.

