
Note: No compatibility mode selected!


Circuit: GF180MCU library cell aoi21_4 A1_to_ZN__A2=1,B=0

Doing analysis at TEMP = 68.765429 and TNOM = 27.000000

Using SPARSE 1.3 as Direct Linear Solver

Initial Transient Solution
--------------------------

Node                                   Voltage
----                                   -------
vdd                                    1.94004
a1                                           0
a2                                     1.94004
b                                            0
xu1.net_0_0                        4.86721e-09
zn                                     1.94004
xu1.net_0_1                        4.86721e-09
xu1.net_0_2                        4.86721e-09
xu1.net_0_3                        4.86721e-09
xu1.net_1                              1.94004
vfix_b#branch                                0
vfix_a2#branch                               0
vin#branch                                   0
vdd#branch                        -2.29741e-11

 Reference value :  1.98064e-08
 Reference value :  5.02973e-08
 Reference value :  8.03623e-08
 Reference value :  1.13547e-07
 Reference value :  1.47107e-07
 Reference value :  1.78957e-07
 Reference value :  2.10742e-07
 Reference value :  2.42232e-07
 Reference value :  2.71352e-07
 Reference value :  3.00637e-07
 Reference value :  3.31072e-07
No. of Data Rows : 68032

  Measurements for Transient Analysis

tphl                =  1.20662e-09 targ=  2.53240e-08 trig=  2.41174e-08
tplh                =  3.12980e-09 targ=  9.74820e-08 trig=  9.43522e-08
i_vdd_avg           =  -2.32712e-06 from=  1.00000e-08 to=  3.30002e-07
power_avg_uw        =  4.51471e+00


Total analysis time (seconds) = 3.52833

Total elapsed time (seconds) = 3.594 

Total DRAM available = 16384.000 MB.
DRAM currently available =  127.438 MB.
Maximum ngspice program size =   17.547 MB.
Current ngspice program size =   17.547 MB.

