
Note: No compatibility mode selected!


Circuit: GF180MCU library cell oai21_4 A1_to_ZN__A2=0,B=1

Doing analysis at TEMP = 50.238837 and TNOM = 27.000000

Using SPARSE 1.3 as Direct Linear Solver

Initial Transient Solution
--------------------------

Node                                   Voltage
----                                   -------
vdd                                    1.62359
a1                                           0
a2                                           0
b                                      1.62359
zn                                     1.62359
xu1.net_0                           5.1143e-08
xu1.net_1_0                            1.62359
xu1.net_1_1                            1.62359
xu1.net_1_2                            1.62359
xu1.net_1_3                            1.62359
vfix_b#branch                                0
vfix_a2#branch                               0
vin#branch                                   0
vdd#branch                        -5.29975e-11

 Reference value :  2.35414e-08
 Reference value :  5.57551e-08
 Reference value :  8.65751e-08
 Reference value :  1.17928e-07
 Reference value :  1.49573e-07
 Reference value :  1.80033e-07
 Reference value :  2.12080e-07
 Reference value :  2.44350e-07
 Reference value :  2.72113e-07
 Reference value :  3.03173e-07
 Reference value :  3.32303e-07
No. of Data Rows : 68034

  Measurements for Transient Analysis

tphl                =  1.80520e-09 targ=  2.81165e-08 trig=  2.63113e-08
tplh                =  3.96735e-09 targ=  1.04901e-07 trig=  1.00934e-07
i_vdd_avg           =  -1.88718e-06 from=  1.00000e-08 to=  3.30003e-07
power_avg_uw        =  3.06401e+00


Total analysis time (seconds) = 3.50603

Total elapsed time (seconds) = 3.585 

Total DRAM available = 16384.000 MB.
DRAM currently available =  134.344 MB.
Maximum ngspice program size =   14.422 MB.
Current ngspice program size =   14.422 MB.

