
Note: No compatibility mode selected!


Circuit: GF180MCU library cell mux2_4 I0_to_Z__I1=0,S=0

Doing analysis at TEMP = -10.771621 and TNOM = 27.000000

Using SPARSE 1.3 as Direct Linear Solver

Initial Transient Solution
--------------------------

Node                                   Voltage
----                                   -------
vdd                                    1.81877
i0                                           0
i1                                           0
s                                            0
xu1.int04                              1.81877
z                                  9.60238e-09
xu1.net_1                           0.00039089
xu1.net_3                              1.16257
xu1.sel1_n                             1.81877
xu1.net_0                              1.81877
xu1.net_2                              1.81877
vfix_s#branch                                0
vfix_i1#branch                               0
vin#branch                                   0
vdd#branch                        -1.55092e-11

 Reference value :  3.04591e-08
 Reference value :  6.93841e-08
 Reference value :  1.09906e-07
 Reference value :  1.49166e-07
 Reference value :  1.86954e-07
 Reference value :  2.23214e-07
 Reference value :  2.61941e-07
 Reference value :  3.00786e-07
 Reference value :  3.36166e-07
No. of Data Rows : 68030

  Measurements for Transient Analysis

tplh                =  1.64689e-09 targ=  2.68402e-08 trig=  2.51933e-08
tphl                =  2.22391e-09 targ=  9.98038e-08 trig=  9.75799e-08
i_vdd_avg           =  -1.03972e-06 from=  1.00000e-08 to=  3.30001e-07
power_avg_uw        =  1.89101e+00


Total analysis time (seconds) = 2.90267

Total elapsed time (seconds) = 2.964 

Total DRAM available = 16384.000 MB.
DRAM currently available =  157.578 MB.
Maximum ngspice program size =   14.328 MB.
Current ngspice program size =   14.328 MB.

