
Note: No compatibility mode selected!


Circuit: GF180MCU library cell aoi21_1 A1_to_ZN__A2=1,B=0

Doing analysis at TEMP = -23.898695 and TNOM = 27.000000

Using SPARSE 1.3 as Direct Linear Solver

Initial Transient Solution
--------------------------

Node                                   Voltage
----                                   -------
vdd                                    1.67144
a1                                           0
a2                                     1.67144
b                                            0
xu1.net_0                          5.23969e-11
zn                                     1.67144
xu1.net_1                              1.67144
vfix_b#branch                                0
vfix_a2#branch                               0
vin#branch                                   0
vdd#branch                        -3.39298e-12

 Reference value :  7.47659e-08
 Reference value :  1.82224e-07
 Reference value :  2.79119e-07
No. of Data Rows : 68034

  Measurements for Transient Analysis

tphl                =  1.42843e-09 targ=  2.92302e-08 trig=  2.78017e-08
tplh                =  3.27298e-09 targ=  1.08678e-07 trig=  1.05405e-07
i_vdd_avg           =  -2.96652e-07 from=  1.00000e-08 to=  3.30004e-07
power_avg_uw        =  4.95836e-01


Total analysis time (seconds) = 1.04943

Total elapsed time (seconds) = 1.121 

Total DRAM available = 16384.000 MB.
DRAM currently available =  148.812 MB.
Maximum ngspice program size =   17.219 MB.
Current ngspice program size =   17.219 MB.

