
Note: No compatibility mode selected!


Circuit: GF180MCU library cell oai21_1 A1_to_ZN__A2=0,B=1

Doing analysis at TEMP = -15.316592 and TNOM = 27.000000

Using SPARSE 1.3 as Direct Linear Solver

Initial Transient Solution
--------------------------

Node                                   Voltage
----                                   -------
vdd                                    1.83051
a1                                           0
a2                                           0
b                                      1.83051
zn                                     1.83051
xu1.net_0                          2.49739e-10
xu1.net_1                              1.83051
vfix_b#branch                                0
vfix_a2#branch                               0
vin#branch                                   0
vdd#branch                        -3.74841e-12

 Reference value :  7.95826e-08
 Reference value :  1.91733e-07
 Reference value :  2.91633e-07
No. of Data Rows : 68032

  Measurements for Transient Analysis

tphl                =  1.42738e-09 targ=  2.70674e-08 trig=  2.56400e-08
tplh                =  2.87458e-09 targ=  1.01795e-07 trig=  9.89201e-08
i_vdd_avg           =  -6.05491e-07 from=  1.00000e-08 to=  3.30003e-07
power_avg_uw        =  1.10836e+00


Total analysis time (seconds) = 1.02292

Total elapsed time (seconds) = 1.077 

Total DRAM available = 16384.000 MB.
DRAM currently available =  123.047 MB.
Maximum ngspice program size =   13.422 MB.
Current ngspice program size =   13.328 MB.

