
Note: No compatibility mode selected!


Circuit: GF180MCU library cell inv_4 I_to_ZN

Doing analysis at TEMP = -26.789293 and TNOM = 27.000000

Using SPARSE 1.3 as Direct Linear Solver

Initial Transient Solution
--------------------------

Node                                   Voltage
----                                   -------
vdd                                    1.74272
i                                            0
zn                                     1.74272
vin#branch                                   0
vdd#branch                         -7.0116e-12

 Reference value :  7.81597e-08
 Reference value :  1.78072e-07
 Reference value :  2.79517e-07
No. of Data Rows : 68030

  Measurements for Transient Analysis

tphl                =  8.99747e-10 targ=  2.92109e-08 trig=  2.83111e-08
tplh                =  2.32112e-09 targ=  1.09254e-07 trig=  1.06933e-07
i_vdd_avg           =  -3.68028e-07 from=  1.00000e-08 to=  3.30002e-07
power_avg_uw        =  6.41372e-01


Total analysis time (seconds) = 1.09028

Total elapsed time (seconds) = 1.140 

Total DRAM available = 16384.000 MB.
DRAM currently available =  127.641 MB.
Maximum ngspice program size =   15.453 MB.
Current ngspice program size =   15.453 MB.

