
Note: No compatibility mode selected!


Circuit: GF180MCU library cell inv_1 I_to_ZN

Doing analysis at TEMP = 96.785738 and TNOM = 27.000000

Using SPARSE 1.3 as Direct Linear Solver

Initial Transient Solution
--------------------------

Node                                   Voltage
----                                   -------
vdd                                    1.70492
i                                            0
zn                                     1.70492
vin#branch                                   0
vdd#branch                        -6.63854e-11

 Reference value :  1.78343e-07
No. of Data Rows : 68032

  Measurements for Transient Analysis

tphl                =  1.81504e-09 targ=  2.63476e-08 trig=  2.45326e-08
tplh                =  3.87200e-09 targ=  9.94697e-08 trig=  9.55977e-08
i_vdd_avg           =  -1.50830e-06 from=  1.00000e-08 to=  3.30003e-07
power_avg_uw        =  2.57153e+00


Total analysis time (seconds) = 0.479971

Total elapsed time (seconds) = 0.553 

Total DRAM available = 16384.000 MB.
DRAM currently available =  145.141 MB.
Maximum ngspice program size =   17.516 MB.
Current ngspice program size =   17.516 MB.

