
Note: No compatibility mode selected!


Circuit: GF180MCU library cell inv_1 I_to_ZN

Doing analysis at TEMP = 74.670682 and TNOM = 27.000000

Using SPARSE 1.3 as Direct Linear Solver

Initial Transient Solution
--------------------------

Node                                   Voltage
----                                   -------
vdd                                    1.78014
i                                            0
zn                                     1.78014
vin#branch                                   0
vdd#branch                        -1.85527e-12

 Reference value :  1.84508e-07
No. of Data Rows : 68032

  Measurements for Transient Analysis

tphl                =  2.17842e-09 targ=  2.99790e-08 trig=  2.78006e-08
tplh                =  3.73266e-09 targ=  1.09135e-07 trig=  1.05402e-07
i_vdd_avg           =  -2.48726e-07 from=  1.00000e-08 to=  3.30005e-07
power_avg_uw        =  4.42768e-01


Total analysis time (seconds) = 0.392483

Total elapsed time (seconds) = 0.508 

Total DRAM available = 16384.000 MB.
DRAM currently available =   74.906 MB.
Maximum ngspice program size =   18.531 MB.
Current ngspice program size =   18.531 MB.

