
Note: No compatibility mode selected!


Circuit: GF180MCU library cell mux2_4 I0_to_Z__I1=0,S=0

Doing analysis at TEMP = 57.665464 and TNOM = 27.000000

Using SPARSE 1.3 as Direct Linear Solver

Initial Transient Solution
--------------------------

Node                                   Voltage
----                                   -------
vdd                                    1.76546
i0                                           0
i1                                           0
s                                            0
xu1.int04                              1.76546
z                                  9.26606e-09
xu1.net_1                            0.0463275
xu1.net_3                              1.31074
xu1.sel1_n                             1.76546
xu1.net_0                              1.76546
xu1.net_2                              1.76546
vfix_s#branch                                0
vfix_i1#branch                               0
vin#branch                                   0
vdd#branch                           -3.24e-11

 Reference value :  3.41968e-08
 Reference value :  7.91918e-08
 Reference value :  1.19216e-07
 Reference value :  1.61381e-07
 Reference value :  1.98587e-07
 Reference value :  2.38797e-07
 Reference value :  2.76901e-07
 Reference value :  3.16151e-07
No. of Data Rows : 68032

  Measurements for Transient Analysis

tplh                =  1.06061e-09 targ=  2.78628e-08 trig=  2.68022e-08
tphl                =  1.99481e-09 targ=  1.04401e-07 trig=  1.02407e-07
i_vdd_avg           =  -5.56823e-07 from=  1.00000e-08 to=  3.30001e-07
power_avg_uw        =  9.83048e-01


Total analysis time (seconds) = 2.61972

Total elapsed time (seconds) = 2.686 

Total DRAM available = 16384.000 MB.
DRAM currently available =   94.297 MB.
Maximum ngspice program size =   13.750 MB.
Current ngspice program size =   13.750 MB.

