
Note: No compatibility mode selected!


Circuit: GF180MCU library cell nand2_4 A1_to_ZN__A2=1

Doing analysis at TEMP = 2.067257 and TNOM = 27.000000

Using SPARSE 1.3 as Direct Linear Solver

Initial Transient Solution
--------------------------

Node                                   Voltage
----                                   -------
vdd                                     1.7827
a1                                           0
a2                                      1.7827
xu1.net_0_0                        2.21707e-11
zn                                      1.7827
xu1.net_0_1                        2.21706e-11
xu1.net_0_2                        2.21707e-11
xu1.net_0_3                        2.21706e-11
vfix_a2#branch                               0
vin#branch                                   0
vdd#branch                        -7.18739e-12

 Reference value :  3.76378e-08
 Reference value :  8.84628e-08
 Reference value :  1.37968e-07
 Reference value :  1.87843e-07
 Reference value :  2.36428e-07
 Reference value :  2.86723e-07
 Reference value :  3.37913e-07
No. of Data Rows : 68032

  Measurements for Transient Analysis

tphl                =  1.57131e-09 targ=  3.08190e-08 trig=  2.92477e-08
tplh                =  3.14446e-09 targ=  1.12887e-07 trig=  1.09743e-07
i_vdd_avg           =  -7.05476e-07 from=  1.00000e-08 to=  3.30003e-07
power_avg_uw        =  1.25765e+00


Total analysis time (seconds) = 2.11866

Total elapsed time (seconds) = 2.172 

Total DRAM available = 16384.000 MB.
DRAM currently available =  100.266 MB.
Maximum ngspice program size =   15.781 MB.
Current ngspice program size =   15.781 MB.

