
Note: No compatibility mode selected!


Circuit: XOR2 seed characterization sample 6010077

Doing analysis at TEMP = 85.019800 and TNOM = 27.000000

Using SPARSE 1.3 as Direct Linear Solver

Initial Transient Solution
--------------------------

Node                                   Voltage
----                                   -------
vdd                                    1.78615
in                                           0
b                                      1.78615
abar                                   1.78615
bbar                                 1.804e-09
out                                    1.78615
vb#branch                                    0
vin#branch                         7.37144e-12
vdd#branch                        -2.07096e-11

 Reference value :  1.11621e-08
 Reference value :  3.94252e-08
 Reference value :  6.95692e-08
 Reference value :  1.02907e-07
No. of Data Rows : 60047

  Measurements for Transient Analysis

tphl                =  2.51794e-10 targ=  2.39036e-09 trig=  2.13856e-09
tplh                =  2.64190e-10 targ=  2.26799e-08 trig=  2.24157e-08
i_vdd_avg           =  -3.18682e-06 from=  5.00000e-09 to=  1.10001e-07
power_avg_uw        =  5.69214e+00


Total analysis time (seconds) = 0.999938

Total elapsed time (seconds) = 1.146 

Total DRAM available = 16384.000 MB.
DRAM currently available =  108.031 MB.
Maximum ngspice program size =   15.094 MB.
Current ngspice program size =   15.094 MB.

