
Note: No compatibility mode selected!


Circuit: NOR2 seed characterization sample 6010070

Doing analysis at TEMP = 68.900700 and TNOM = 27.000000

Using SPARSE 1.3 as Direct Linear Solver

Initial Transient Solution
--------------------------

Node                                   Voltage
----                                   -------
vdd                                    1.91885
in                                           0
out                                    1.91885
pmid                                   1.91885
vin#branch                                   0
vdd#branch                        -6.53874e-12

 Reference value :  1.82114e-08
 Reference value :  5.86134e-08
 Reference value :  1.08208e-07
No. of Data Rows : 60044

  Measurements for Transient Analysis

tphl                =  1.58442e-10 targ=  2.28164e-09 trig=  2.12319e-09
tplh                =  5.33307e-10 targ=  2.29029e-08 trig=  2.23696e-08
i_vdd_avg           =  -5.54158e-06 from=  5.00000e-09 to=  1.10002e-07
power_avg_uw        =  1.06335e+01


Total analysis time (seconds) = 0.713984

Total elapsed time (seconds) = 0.839 

Total DRAM available = 16384.000 MB.
DRAM currently available =  142.672 MB.
Maximum ngspice program size =   17.938 MB.
Current ngspice program size =   17.938 MB.

