
Note: No compatibility mode selected!


Circuit: NOR2 seed characterization sample 6010055

Doing analysis at TEMP = 43.520200 and TNOM = 27.000000

Using SPARSE 1.3 as Direct Linear Solver

Initial Transient Solution
--------------------------

Node                                   Voltage
----                                   -------
vdd                                    1.75657
in                                           0
out                                    1.75657
pmid                                   1.75657
vin#branch                                   0
vdd#branch                        -4.00585e-12

 Reference value :  1.79725e-08
 Reference value :  5.76125e-08
 Reference value :  1.07398e-07
No. of Data Rows : 60044

  Measurements for Transient Analysis

tphl                =  1.26826e-10 targ=  2.28059e-09 trig=  2.15377e-09
tplh                =  4.59485e-10 targ=  2.29208e-08 trig=  2.24613e-08
i_vdd_avg           =  -2.89501e-06 from=  5.00000e-09 to=  1.10000e-07
power_avg_uw        =  5.08529e+00


Total analysis time (seconds) = 0.717847

Total elapsed time (seconds) = 0.843 

Total DRAM available = 16384.000 MB.
DRAM currently available =  142.672 MB.
Maximum ngspice program size =   16.906 MB.
Current ngspice program size =   16.906 MB.

