
Note: No compatibility mode selected!


Circuit: NAND2 seed characterization sample 6010038

Doing analysis at TEMP = 36.801400 and TNOM = 27.000000

Using SPARSE 1.3 as Direct Linear Solver

Initial Transient Solution
--------------------------

Node                                   Voltage
----                                   -------
vdd                                    1.77384
in                                           0
out                                    1.77384
nmid                                 0.0168527
vin#branch                                   0
vdd#branch                        -1.83593e-12

 Reference value :  2.00755e-08
 Reference value :  6.43280e-08
 Reference value :  1.03678e-07
No. of Data Rows : 60041

  Measurements for Transient Analysis

tphl                =  4.56035e-10 targ=  2.70529e-09 trig=  2.24926e-09
tplh                =  2.42717e-10 targ=  2.29905e-08 trig=  2.27478e-08
i_vdd_avg           =  -3.82527e-06 from=  5.00000e-09 to=  1.10000e-07
power_avg_uw        =  6.78542e+00


Total analysis time (seconds) = 0.753415

Total elapsed time (seconds) = 0.875 

Total DRAM available = 16384.000 MB.
DRAM currently available =  142.672 MB.
Maximum ngspice program size =   14.656 MB.
Current ngspice program size =   14.516 MB.

