
Note: No compatibility mode selected!


Circuit: INV seed characterization sample 6010000

Doing analysis at TEMP = 5.282080 and TNOM = 27.000000

Using SPARSE 1.3 as Direct Linear Solver

Initial Transient Solution
--------------------------

Node                                   Voltage
----                                   -------
vdd                                     1.8278
in                                           0
out                                     1.8278
vin#branch                                   0
vdd#branch                        -1.84132e-12

 Reference value :  3.30703e-08
 Reference value :  1.02381e-07
No. of Data Rows : 60044

  Measurements for Transient Analysis

tphl                =  3.85398e-10 targ=  2.51122e-09 trig=  2.12582e-09
tplh                =  5.78521e-10 targ=  2.29560e-08 trig=  2.23775e-08
i_vdd_avg           =  -5.50134e-06 from=  5.00000e-09 to=  1.10000e-07
power_avg_uw        =  1.00553e+01


Total analysis time (seconds) = 0.468984

Total elapsed time (seconds) = 0.579 

Total DRAM available = 16384.000 MB.
DRAM currently available =  120.516 MB.
Maximum ngspice program size =   15.734 MB.
Current ngspice program size =   15.734 MB.

