
Note: No compatibility mode selected!


Circuit: INV seed characterization sample 6010021

Doing analysis at TEMP = 82.613000 and TNOM = 27.000000

Using SPARSE 1.3 as Direct Linear Solver

Initial Transient Solution
--------------------------

Node                                   Voltage
----                                   -------
vdd                                     1.9212
in                                           0
out                                     1.9212
vin#branch                                   0
vdd#branch                        -3.91852e-12

 Reference value :  3.24217e-08
 Reference value :  1.01191e-07
No. of Data Rows : 60044

  Measurements for Transient Analysis

tphl                =  2.95375e-10 targ=  2.40855e-09 trig=  2.11318e-09
tplh                =  3.74075e-10 targ=  2.27136e-08 trig=  2.23395e-08
i_vdd_avg           =  -4.35252e-06 from=  5.00000e-09 to=  1.10002e-07
power_avg_uw        =  8.36207e+00


Total analysis time (seconds) = 0.47309

Total elapsed time (seconds) = 0.585 

Total DRAM available = 16384.000 MB.
DRAM currently available =  132.984 MB.
Maximum ngspice program size =   15.984 MB.
Current ngspice program size =   15.984 MB.

