
Note: No compatibility mode selected!


Circuit: NAND2 seed characterization sample 6010034

Doing analysis at TEMP = 61.368800 and TNOM = 27.000000

Using SPARSE 1.3 as Direct Linear Solver

Initial Transient Solution
--------------------------

Node                                   Voltage
----                                   -------
vdd                                    1.68254
in                                           0
out                                    1.68254
nmid                                 0.0357851
vin#branch                                   0
vdd#branch                        -1.91141e-12

 Reference value :  1.98897e-08
 Reference value :  6.43304e-08
 Reference value :  1.03696e-07
No. of Data Rows : 60041

  Measurements for Transient Analysis

tphl                =  4.39659e-10 targ=  2.65302e-09 trig=  2.21336e-09
tplh                =  2.72449e-10 targ=  2.29125e-08 trig=  2.26401e-08
i_vdd_avg           =  -3.80001e-06 from=  5.00000e-09 to=  1.10000e-07
power_avg_uw        =  6.39368e+00


Total analysis time (seconds) = 0.741046

Total elapsed time (seconds) = 0.864 

Total DRAM available = 16384.000 MB.
DRAM currently available =  142.672 MB.
Maximum ngspice program size =   16.125 MB.
Current ngspice program size =   16.125 MB.

