
Note: No compatibility mode selected!


Circuit: INV seed characterization sample 4310016

Doing analysis at TEMP = 87.859700 and TNOM = 27.000000

Using SPARSE 1.3 as Direct Linear Solver

Initial Transient Solution
--------------------------

Node                                   Voltage
----                                   -------
vdd                                     1.8155
in                                           0
out                                     1.8155
vin#branch                                   0
vdd#branch                        -8.37329e-12

 Reference value :  7.09082e-08
No. of Data Rows : 60044

  Measurements for Transient Analysis

tphl                =  1.73674e-10 targ=  2.30548e-09 trig=  2.13181e-09
tplh                =  1.97957e-10 targ=  2.25934e-08 trig=  2.23954e-08
i_vdd_avg           =  -3.81078e-06 from=  5.00000e-09 to=  1.10000e-07
power_avg_uw        =  6.91847e+00


Total analysis time (seconds) = 0.299604

Total elapsed time (seconds) = 0.372 

Total DRAM available = 16384.000 MB.
DRAM currently available =  152.312 MB.
Maximum ngspice program size =   12.562 MB.
Current ngspice program size =   11.938 MB.

