
Note: No compatibility mode selected!


Circuit: NOR2 seed characterization sample 4310017

Doing analysis at TEMP = 61.511600 and TNOM = 27.000000

Using SPARSE 1.3 as Direct Linear Solver

Initial Transient Solution
--------------------------

Node                                   Voltage
----                                   -------
vdd                                    1.81565
in                                           0
out                                    1.81565
pmid                                   1.81565
vin#branch                                   0
vdd#branch                        -4.96232e-12

 Reference value :  4.66393e-08
 Reference value :  1.07334e-07
No. of Data Rows : 60041

  Measurements for Transient Analysis

tphl                =  7.82662e-11 targ=  2.08862e-09 trig=  2.01036e-09
tplh                =  4.48688e-10 targ=  2.24798e-08 trig=  2.20311e-08
i_vdd_avg           =  -3.23740e-06 from=  5.00000e-09 to=  1.10000e-07
power_avg_uw        =  5.87799e+00


Total analysis time (seconds) = 0.476971

Total elapsed time (seconds) = 0.546 

Total DRAM available = 16384.000 MB.
DRAM currently available =  151.938 MB.
Maximum ngspice program size =   12.609 MB.
Current ngspice program size =   11.828 MB.

