
Note: No compatibility mode selected!


Circuit: NOR2 seed characterization sample 4310035

Doing analysis at TEMP = -14.212800 and TNOM = 27.000000

Using SPARSE 1.3 as Direct Linear Solver

Initial Transient Solution
--------------------------

Node                                   Voltage
----                                   -------
vdd                                    1.72871
in                                           0
out                                    1.72871
pmid                                   1.72871
vin#branch                                   0
vdd#branch                        -3.47875e-12

 Reference value :  4.61738e-08
 Reference value :  1.05349e-07
No. of Data Rows : 60041

  Measurements for Transient Analysis

tphl                =  9.22730e-11 targ=  2.12665e-09 trig=  2.03438e-09
tplh                =  3.50510e-10 targ=  2.24536e-08 trig=  2.21031e-08
i_vdd_avg           =  -3.47602e-06 from=  5.00000e-09 to=  1.10001e-07
power_avg_uw        =  6.00903e+00


Total analysis time (seconds) = 0.490721

Total elapsed time (seconds) = 0.561 

Total DRAM available = 16384.000 MB.
DRAM currently available =  127.906 MB.
Maximum ngspice program size =   12.562 MB.
Current ngspice program size =   12.234 MB.

