
Note: No compatibility mode selected!


Circuit: NAND2 seed characterization sample 4310048

Doing analysis at TEMP = 18.524500 and TNOM = 27.000000

Using SPARSE 1.3 as Direct Linear Solver

Initial Transient Solution
--------------------------

Node                                   Voltage
----                                   -------
vdd                                    1.96352
in                                           0
out                                    1.96352
nmid                                0.00359055
vin#branch                                   0
vdd#branch                        -1.98356e-12

 Reference value :  4.08019e-08
 Reference value :  9.94845e-08
No. of Data Rows : 60047

  Measurements for Transient Analysis

tphl                =  3.36507e-10 targ=  2.43624e-09 trig=  2.09973e-09
tplh                =  1.64209e-10 targ=  2.24634e-08 trig=  2.22992e-08
i_vdd_avg           =  -2.65173e-06 from=  5.00000e-09 to=  1.10002e-07
power_avg_uw        =  5.20673e+00


Total analysis time (seconds) = 0.496073

Total elapsed time (seconds) = 0.577 

Total DRAM available = 16384.000 MB.
DRAM currently available =  166.250 MB.
Maximum ngspice program size =   12.562 MB.
Current ngspice program size =   11.844 MB.

