
Note: No compatibility mode selected!


Circuit: NAND2 seed characterization sample 4310032

Doing analysis at TEMP = 65.040200 and TNOM = 27.000000

Using SPARSE 1.3 as Direct Linear Solver

Initial Transient Solution
--------------------------

Node                                   Voltage
----                                   -------
vdd                                    1.86715
in                                           0
out                                    1.86715
nmid                                 0.0306068
vin#branch                                   0
vdd#branch                         -2.0008e-12

 Reference value :  4.63017e-08
 Reference value :  1.06796e-07
No. of Data Rows : 60041

  Measurements for Transient Analysis

tphl                =  1.10945e-10 targ=  2.15228e-09 trig=  2.04133e-09
tplh                =  6.59110e-11 targ=  2.21899e-08 trig=  2.21240e-08
i_vdd_avg           =  -4.83754e-07 from=  5.00000e-09 to=  1.10000e-07
power_avg_uw        =  9.03241e-01


Total analysis time (seconds) = 0.475727

Total elapsed time (seconds) = 0.548 

Total DRAM available = 16384.000 MB.
DRAM currently available =  157.172 MB.
Maximum ngspice program size =   12.562 MB.
Current ngspice program size =   11.719 MB.

