
Note: No compatibility mode selected!


Circuit: NOR2 seed characterization sample 4310007

Doing analysis at TEMP = 93.563900 and TNOM = 27.000000

Using SPARSE 1.3 as Direct Linear Solver

Initial Transient Solution
--------------------------

Node                                   Voltage
----                                   -------
vdd                                     1.9627
in                                           0
out                                     1.9627
pmid                                    1.9627
vin#branch                                   0
vdd#branch                        -1.05384e-11

 Reference value :  4.54685e-08
 Reference value :  1.05268e-07
No. of Data Rows : 60044

  Measurements for Transient Analysis

tphl                =  1.62390e-10 targ=  2.24515e-09 trig=  2.08276e-09
tplh                =  5.26446e-10 targ=  2.27747e-08 trig=  2.22483e-08
i_vdd_avg           =  -3.91678e-06 from=  5.00000e-09 to=  1.10000e-07
power_avg_uw        =  7.68746e+00


Total analysis time (seconds) = 0.47671

Total elapsed time (seconds) = 0.573 

Total DRAM available = 16384.000 MB.
DRAM currently available =  166.047 MB.
Maximum ngspice program size =   14.203 MB.
Current ngspice program size =   14.203 MB.

