
Note: No compatibility mode selected!


Circuit: NAND2 seed characterization sample 4310002

Doing analysis at TEMP = -3.197720 and TNOM = 27.000000

Using SPARSE 1.3 as Direct Linear Solver

Initial Transient Solution
--------------------------

Node                                   Voltage
----                                   -------
vdd                                    1.90227
in                                           0
out                                    1.90227
nmid                                0.00116638
vin#branch                                   0
vdd#branch                        -1.91559e-12

 Reference value :  4.76930e-08
 Reference value :  1.10037e-07
No. of Data Rows : 60044

  Measurements for Transient Analysis

tphl                =  3.68341e-10 targ=  2.56335e-09 trig=  2.19501e-09
tplh                =  2.18368e-10 targ=  2.28034e-08 trig=  2.25850e-08
i_vdd_avg           =  -5.68355e-06 from=  5.00000e-09 to=  1.10001e-07
power_avg_uw        =  1.08116e+01


Total analysis time (seconds) = 0.465213

Total elapsed time (seconds) = 0.534 

Total DRAM available = 16384.000 MB.
DRAM currently available =  155.141 MB.
Maximum ngspice program size =   12.562 MB.
Current ngspice program size =   11.656 MB.

