
Note: No compatibility mode selected!


Circuit: INV seed characterization sample 4310010

Doing analysis at TEMP = 49.616900 and TNOM = 27.000000

Using SPARSE 1.3 as Direct Linear Solver

Initial Transient Solution
--------------------------

Node                                   Voltage
----                                   -------
vdd                                    1.71655
in                                           0
out                                    1.71655
vin#branch                                   0
vdd#branch                        -2.08631e-12

 Reference value :  6.47475e-08
No. of Data Rows : 60047

  Measurements for Transient Analysis

tphl                =  1.47760e-10 targ=  2.28840e-09 trig=  2.14064e-09
tplh                =  1.69860e-10 targ=  2.25918e-08 trig=  2.24219e-08
i_vdd_avg           =  -1.90495e-06 from=  5.00000e-09 to=  1.10002e-07
power_avg_uw        =  3.26995e+00


Total analysis time (seconds) = 0.325294

Total elapsed time (seconds) = 0.401 

Total DRAM available = 16384.000 MB.
DRAM currently available =  150.641 MB.
Maximum ngspice program size =   12.594 MB.
Current ngspice program size =   12.000 MB.

