
Note: No compatibility mode selected!


Circuit: NOR2 seed characterization sample 4310038

Doing analysis at TEMP = 98.405600 and TNOM = 27.000000

Using SPARSE 1.3 as Direct Linear Solver

Initial Transient Solution
--------------------------

Node                                   Voltage
----                                   -------
vdd                                    1.83983
in                                           0
out                                    1.83983
pmid                                   1.83983
vin#branch                                   0
vdd#branch                        -2.06954e-11

 Reference value :  4.49197e-08
 Reference value :  1.03054e-07
No. of Data Rows : 60041

  Measurements for Transient Analysis

tphl                =  1.42532e-10 targ=  2.24989e-09 trig=  2.10736e-09
tplh                =  6.98581e-10 targ=  2.30206e-08 trig=  2.23221e-08
i_vdd_avg           =  -4.66451e-06 from=  5.00000e-09 to=  1.10000e-07
power_avg_uw        =  8.58190e+00


Total analysis time (seconds) = 0.500022

Total elapsed time (seconds) = 0.574 

Total DRAM available = 16384.000 MB.
DRAM currently available =  147.766 MB.
Maximum ngspice program size =   12.562 MB.
Current ngspice program size =   12.094 MB.

