
Note: No compatibility mode selected!


Circuit: NAND2 seed characterization sample 4310024

Doing analysis at TEMP = 72.116500 and TNOM = 27.000000

Using SPARSE 1.3 as Direct Linear Solver

Initial Transient Solution
--------------------------

Node                                   Voltage
----                                   -------
vdd                                    1.91627
in                                           0
out                                    1.91627
nmid                                 0.0422665
vin#branch                                   0
vdd#branch                        -2.24744e-12

 Reference value :  4.02066e-08
 Reference value :  9.45188e-08
No. of Data Rows : 60044

  Measurements for Transient Analysis

tphl                =  3.88127e-10 targ=  2.63702e-09 trig=  2.24889e-09
tplh                =  2.00655e-10 targ=  2.29473e-08 trig=  2.27467e-08
i_vdd_avg           =  -3.15244e-06 from=  5.00000e-09 to=  1.10001e-07
power_avg_uw        =  6.04093e+00


Total analysis time (seconds) = 0.538077

Total elapsed time (seconds) = 0.613 

Total DRAM available = 16384.000 MB.
DRAM currently available =  122.953 MB.
Maximum ngspice program size =   12.594 MB.
Current ngspice program size =   11.688 MB.

