
Note: No compatibility mode selected!


Circuit: NOR2 seed characterization sample 4310036

Doing analysis at TEMP = 17.515400 and TNOM = 27.000000

Using SPARSE 1.3 as Direct Linear Solver

Initial Transient Solution
--------------------------

Node                                   Voltage
----                                   -------
vdd                                    1.72448
in                                           0
out                                    1.72448
pmid                                   1.72448
vin#branch                                   0
vdd#branch                        -3.49923e-12

 Reference value :  4.55372e-08
 Reference value :  1.04589e-07
No. of Data Rows : 60044

  Measurements for Transient Analysis

tphl                =  1.48458e-10 targ=  2.32756e-09 trig=  2.17911e-09
tplh                =  4.71656e-10 targ=  2.30090e-08 trig=  2.25373e-08
i_vdd_avg           =  -2.12681e-06 from=  5.00000e-09 to=  1.10001e-07
power_avg_uw        =  3.66765e+00


Total analysis time (seconds) = 0.49038

Total elapsed time (seconds) = 0.564 

Total DRAM available = 16384.000 MB.
DRAM currently available =  127.906 MB.
Maximum ngspice program size =   12.625 MB.
Current ngspice program size =   12.391 MB.

