
Note: No compatibility mode selected!


Circuit: XOR2 seed characterization sample 4310011

Doing analysis at TEMP = -19.072000 and TNOM = 27.000000

Using SPARSE 1.3 as Direct Linear Solver

Initial Transient Solution
--------------------------

Node                                   Voltage
----                                   -------
vdd                                    1.87654
in                                           0
b                                      1.87654
abar                                   1.87654
bbar                                2.8914e-09
out                                    1.87654
vb#branch                                    0
vin#branch                         1.88676e-12
vdd#branch                        -1.13196e-11

 Reference value :  2.29045e-08
 Reference value :  5.49197e-08
 Reference value :  8.97537e-08
No. of Data Rows : 60041

  Measurements for Transient Analysis

tphl                =  2.22421e-10 targ=  2.34379e-09 trig=  2.12137e-09
tplh                =  2.29677e-10 targ=  2.25938e-08 trig=  2.23641e-08
i_vdd_avg           =  -1.41824e-06 from=  5.00000e-09 to=  1.10000e-07
power_avg_uw        =  2.66138e+00


Total analysis time (seconds) = 0.856961

Total elapsed time (seconds) = 0.935 

Total DRAM available = 16384.000 MB.
DRAM currently available =  150.641 MB.
Maximum ngspice program size =   12.578 MB.
Current ngspice program size =   11.781 MB.

