
Note: No compatibility mode selected!


Circuit: INV seed characterization sample 4310019

Doing analysis at TEMP = 90.257000 and TNOM = 27.000000

Using SPARSE 1.3 as Direct Linear Solver

Initial Transient Solution
--------------------------

Node                                   Voltage
----                                   -------
vdd                                    1.97695
in                                           0
out                                    1.97695
vin#branch                                   0
vdd#branch                        -7.72442e-12

 Reference value :  7.27096e-08
No. of Data Rows : 60047

  Measurements for Transient Analysis

tphl                =  2.02938e-10 targ=  2.44159e-09 trig=  2.23865e-09
tplh                =  2.46520e-10 targ=  2.29625e-08 trig=  2.27159e-08
i_vdd_avg           =  -2.94664e-06 from=  5.00000e-09 to=  1.10002e-07
power_avg_uw        =  5.82536e+00


Total analysis time (seconds) = 0.293601

Total elapsed time (seconds) = 0.363 

Total DRAM available = 16384.000 MB.
DRAM currently available =  151.938 MB.
Maximum ngspice program size =   12.594 MB.
Current ngspice program size =   11.688 MB.

