
Note: No compatibility mode selected!


Circuit: INV seed characterization sample 4200013

Doing analysis at TEMP = -4.468170 and TNOM = 27.000000

Using SPARSE 1.3 as Direct Linear Solver

Initial Transient Solution
--------------------------

Node                                   Voltage
----                                   -------
vdd                                    1.94959
in                                           0
out                                    1.94959
vin#branch                                   0
vdd#branch                        -2.33215e-12

 Reference value :  6.18240e-08
No. of Data Rows : 60047

  Measurements for Transient Analysis

tphl                =  2.95103e-10 targ=  2.37562e-09 trig=  2.08051e-09
tplh                =  3.11767e-10 targ=  2.25533e-08 trig=  2.22415e-08
i_vdd_avg           =  -5.21247e-06 from=  5.00000e-09 to=  1.10001e-07
power_avg_uw        =  1.01622e+01


Total analysis time (seconds) = 0.318874

Total elapsed time (seconds) = 0.403 

Total DRAM available = 16384.000 MB.
DRAM currently available =  100.578 MB.
Maximum ngspice program size =   12.969 MB.
Current ngspice program size =   12.391 MB.

