
Note: No compatibility mode selected!


Circuit: XOR2 seed characterization sample 4200039

Doing analysis at TEMP = 77.445400 and TNOM = 27.000000

Using SPARSE 1.3 as Direct Linear Solver

Initial Transient Solution
--------------------------

Node                                   Voltage
----                                   -------
vdd                                    1.65526
in                                           0
b                                      1.65526
abar                                   1.65526
bbar                                1.9074e-08
out                                    1.65526
vb#branch                                    0
vin#branch                          2.5075e-10
vdd#branch                        -4.51698e-10

 Reference value :  2.52706e-08
 Reference value :  6.03278e-08
 Reference value :  1.00048e-07
No. of Data Rows : 60041

  Measurements for Transient Analysis

tphl                =  3.78376e-10 targ=  2.57178e-09 trig=  2.19340e-09
tplh                =  5.02537e-10 targ=  2.30827e-08 trig=  2.25802e-08
i_vdd_avg           =  -5.37745e-06 from=  5.00000e-09 to=  1.10001e-07
power_avg_uw        =  8.90107e+00


Total analysis time (seconds) = 0.778653

Total elapsed time (seconds) = 0.856 

Total DRAM available = 16384.000 MB.
DRAM currently available =  140.531 MB.
Maximum ngspice program size =   12.703 MB.
Current ngspice program size =   11.844 MB.

