
Note: No compatibility mode selected!


Circuit: XOR2 seed characterization sample 4200001

Doing analysis at TEMP = 44.889500 and TNOM = 27.000000

Using SPARSE 1.3 as Direct Linear Solver

Initial Transient Solution
--------------------------

Node                                   Voltage
----                                   -------
vdd                                      1.892
in                                           0
b                                        1.892
abar                                     1.892
bbar                               2.52562e-09
out                                      1.892
vb#branch                                    0
vin#branch                         8.46264e-11
vdd#branch                        -1.58789e-10

 Reference value :  2.48033e-08
 Reference value :  6.00122e-08
 Reference value :  9.69702e-08
No. of Data Rows : 60047

  Measurements for Transient Analysis

tphl                =  9.36872e-11 targ=  2.11927e-09 trig=  2.02559e-09
tplh                =  1.09477e-10 targ=  2.21862e-08 trig=  2.20768e-08
i_vdd_avg           =  -3.30295e-06 from=  5.00000e-09 to=  1.10001e-07
power_avg_uw        =  6.24918e+00


Total analysis time (seconds) = 0.799568

Total elapsed time (seconds) = 0.883 

Total DRAM available = 16384.000 MB.
DRAM currently available =   99.797 MB.
Maximum ngspice program size =   13.203 MB.
Current ngspice program size =   12.438 MB.

