
Note: No compatibility mode selected!


Circuit: NAND2 seed characterization sample 4200042

Doing analysis at TEMP = 37.499000 and TNOM = 27.000000

Using SPARSE 1.3 as Direct Linear Solver

Initial Transient Solution
--------------------------

Node                                   Voltage
----                                   -------
vdd                                    1.62077
in                                           0
out                                    1.62077
nmid                                 0.0507039
vin#branch                                   0
vdd#branch                        -7.15657e-12

 Reference value :  4.76755e-08
 Reference value :  1.09896e-07
No. of Data Rows : 60044

  Measurements for Transient Analysis

tphl                =  1.28948e-10 targ=  2.19318e-09 trig=  2.06423e-09
tplh                =  5.95803e-11 targ=  2.22523e-08 trig=  2.21927e-08
i_vdd_avg           =  -2.39714e-06 from=  5.00000e-09 to=  1.10002e-07
power_avg_uw        =  3.88521e+00


Total analysis time (seconds) = 0.465229

Total elapsed time (seconds) = 0.535 

Total DRAM available = 16384.000 MB.
DRAM currently available =  124.406 MB.
Maximum ngspice program size =   12.562 MB.
Current ngspice program size =   11.719 MB.

