
Note: No compatibility mode selected!


Circuit: INV seed characterization sample 4200040

Doing analysis at TEMP = -6.600540 and TNOM = 27.000000

Using SPARSE 1.3 as Direct Linear Solver

Initial Transient Solution
--------------------------

Node                                   Voltage
----                                   -------
vdd                                    1.67195
in                                           0
out                                    1.67195
vin#branch                                   0
vdd#branch                        -2.30335e-12

 Reference value :  7.00293e-08
No. of Data Rows : 60044

  Measurements for Transient Analysis

tphl                =  1.77990e-10 targ=  2.35606e-09 trig=  2.17807e-09
tplh                =  2.27150e-10 targ=  2.27614e-08 trig=  2.25342e-08
i_vdd_avg           =  -3.07015e-06 from=  5.00000e-09 to=  1.10001e-07
power_avg_uw        =  5.13314e+00


Total analysis time (seconds) = 0.299067

Total elapsed time (seconds) = 0.375 

Total DRAM available = 16384.000 MB.
DRAM currently available =  109.406 MB.
Maximum ngspice program size =   12.766 MB.
Current ngspice program size =   12.078 MB.

