
Note: No compatibility mode selected!


Circuit: NOR2 seed characterization sample 4200019

Doing analysis at TEMP = 64.109800 and TNOM = 27.000000

Using SPARSE 1.3 as Direct Linear Solver

Initial Transient Solution
--------------------------

Node                                   Voltage
----                                   -------
vdd                                    1.97621
in                                           0
out                                    1.97621
pmid                                   1.97621
vin#branch                                   0
vdd#branch                        -2.37777e-10

 Reference value :  4.10970e-08
 Reference value :  9.58800e-08
No. of Data Rows : 60041

  Measurements for Transient Analysis

tphl                =  9.16450e-11 targ=  2.11014e-09 trig=  2.01850e-09
tplh                =  2.91198e-10 targ=  2.23467e-08 trig=  2.20555e-08
i_vdd_avg           =  -6.00840e-06 from=  5.00000e-09 to=  1.10001e-07
power_avg_uw        =  1.18739e+01


Total analysis time (seconds) = 0.530871

Total elapsed time (seconds) = 0.606 

Total DRAM available = 16384.000 MB.
DRAM currently available =  105.000 MB.
Maximum ngspice program size =   12.734 MB.
Current ngspice program size =   11.812 MB.

