
Note: No compatibility mode selected!


Circuit: INV seed characterization sample 4200029

Doing analysis at TEMP = 5.685720 and TNOM = 27.000000

Using SPARSE 1.3 as Direct Linear Solver

Initial Transient Solution
--------------------------

Node                                   Voltage
----                                   -------
vdd                                    1.80556
in                                           0
out                                    1.80556
vin#branch                                   0
vdd#branch                        -5.38175e-12

 Reference value :  6.18078e-08
No. of Data Rows : 60041

  Measurements for Transient Analysis

tphl                =  9.35202e-11 targ=  2.20691e-09 trig=  2.11339e-09
tplh                =  1.20732e-10 targ=  2.24609e-08 trig=  2.23402e-08
i_vdd_avg           =  -2.69917e-06 from=  5.00000e-09 to=  1.10001e-07
power_avg_uw        =  4.87352e+00


Total analysis time (seconds) = 0.3507

Total elapsed time (seconds) = 0.429 

Total DRAM available = 16384.000 MB.
DRAM currently available =  108.984 MB.
Maximum ngspice program size =   12.562 MB.
Current ngspice program size =   11.781 MB.

