
Note: No compatibility mode selected!


Circuit: INV seed characterization sample 4200012

Doing analysis at TEMP = 38.596400 and TNOM = 27.000000

Using SPARSE 1.3 as Direct Linear Solver

Initial Transient Solution
--------------------------

Node                                   Voltage
----                                   -------
vdd                                    1.96287
in                                           0
out                                    1.96287
vin#branch                                   0
vdd#branch                        -1.06471e-11

 Reference value :  6.30780e-08
No. of Data Rows : 60044

  Measurements for Transient Analysis

tphl                =  3.53372e-10 targ=  2.55162e-09 trig=  2.19825e-09
tplh                =  5.29543e-10 targ=  2.31243e-08 trig=  2.25947e-08
i_vdd_avg           =  -4.61911e-06 from=  5.00000e-09 to=  1.10002e-07
power_avg_uw        =  9.06671e+00


Total analysis time (seconds) = 0.337628

Total elapsed time (seconds) = 0.413 

Total DRAM available = 16384.000 MB.
DRAM currently available =   94.188 MB.
Maximum ngspice program size =   12.562 MB.
Current ngspice program size =   12.094 MB.

