
Note: No compatibility mode selected!


Circuit: XOR2 seed characterization sample 4200009

Doing analysis at TEMP = 80.583900 and TNOM = 27.000000

Using SPARSE 1.3 as Direct Linear Solver

Initial Transient Solution
--------------------------

Node                                   Voltage
----                                   -------
vdd                                    1.90718
in                                           0
b                                      1.90718
abar                                   1.90718
bbar                               2.68122e-08
out                                    1.90718
vb#branch                                    0
vin#branch                         4.50446e-10
vdd#branch                        -8.09099e-10

 Reference value :  2.21858e-08
 Reference value :  5.30598e-08
 Reference value :  8.86678e-08
No. of Data Rows : 60041

  Measurements for Transient Analysis

tphl                =  2.49030e-10 targ=  2.43343e-09 trig=  2.18440e-09
tplh                =  2.74318e-10 targ=  2.28275e-08 trig=  2.25532e-08
i_vdd_avg           =  -5.32960e-06 from=  5.00000e-09 to=  1.10001e-07
power_avg_uw        =  1.01645e+01


Total analysis time (seconds) = 0.865754

Total elapsed time (seconds) = 0.946 

Total DRAM available = 16384.000 MB.
DRAM currently available =   94.188 MB.
Maximum ngspice program size =   12.578 MB.
Current ngspice program size =   11.906 MB.

