
Note: No compatibility mode selected!


Circuit: NAND2 seed characterization sample 4200021

Doing analysis at TEMP = 17.538900 and TNOM = 27.000000

Using SPARSE 1.3 as Direct Linear Solver

Initial Transient Solution
--------------------------

Node                                   Voltage
----                                   -------
vdd                                     1.8606
in                                           0
out                                     1.8606
nmid                                 0.0494551
vin#branch                                   0
vdd#branch                        -2.33445e-12

 Reference value :  4.54678e-08
 Reference value :  1.05425e-07
No. of Data Rows : 60041

  Measurements for Transient Analysis

tphl                =  1.22392e-10 targ=  2.17379e-09 trig=  2.05139e-09
tplh                =  6.21972e-11 targ=  2.22164e-08 trig=  2.21542e-08
i_vdd_avg           =  -1.24402e-06 from=  5.00000e-09 to=  1.10001e-07
power_avg_uw        =  2.31462e+00


Total analysis time (seconds) = 0.474711

Total elapsed time (seconds) = 0.547 

Total DRAM available = 16384.000 MB.
DRAM currently available =  100.531 MB.
Maximum ngspice program size =   12.609 MB.
Current ngspice program size =   12.312 MB.

