
Note: No compatibility mode selected!


Circuit: XOR2 seed characterization sample 4200018

Doing analysis at TEMP = 47.204600 and TNOM = 27.000000

Using SPARSE 1.3 as Direct Linear Solver

Initial Transient Solution
--------------------------

Node                                   Voltage
----                                   -------
vdd                                    1.71252
in                                           0
b                                      1.71252
abar                                   1.71252
bbar                               2.93947e-09
out                                    1.71252
vb#branch                                    0
vin#branch                         6.36488e-11
vdd#branch                        -1.20358e-10

 Reference value :  2.33541e-08
 Reference value :  5.47496e-08
 Reference value :  8.69276e-08
No. of Data Rows : 60041

  Measurements for Transient Analysis

tphl                =  2.25092e-10 targ=  2.32137e-09 trig=  2.09628e-09
tplh                =  3.08310e-10 targ=  2.25971e-08 trig=  2.22888e-08
i_vdd_avg           =  -4.84482e-06 from=  5.00000e-09 to=  1.10000e-07
power_avg_uw        =  8.29684e+00


Total analysis time (seconds) = 0.878782

Total elapsed time (seconds) = 0.956 

Total DRAM available = 16384.000 MB.
DRAM currently available =  105.000 MB.
Maximum ngspice program size =   12.609 MB.
Current ngspice program size =   12.016 MB.

