
Note: No compatibility mode selected!


Circuit: NOR2 seed characterization sample 4200020

Doing analysis at TEMP = 13.722500 and TNOM = 27.000000

Using SPARSE 1.3 as Direct Linear Solver

Initial Transient Solution
--------------------------

Node                                   Voltage
----                                   -------
vdd                                     1.7111
in                                           0
out                                     1.7111
pmid                                    1.7111
vin#branch                                   0
vdd#branch                        -5.31774e-12

 Reference value :  4.16674e-08
 Reference value :  9.60182e-08
No. of Data Rows : 60047

  Measurements for Transient Analysis

tphl                =  1.12069e-10 targ=  2.14267e-09 trig=  2.03060e-09
tplh                =  5.81065e-10 targ=  2.26729e-08 trig=  2.20918e-08
i_vdd_avg           =  -1.79577e-06 from=  5.00000e-09 to=  1.10001e-07
power_avg_uw        =  3.07274e+00


Total analysis time (seconds) = 0.533031

Total elapsed time (seconds) = 0.607 

Total DRAM available = 16384.000 MB.
DRAM currently available =  105.000 MB.
Maximum ngspice program size =   13.578 MB.
Current ngspice program size =   12.141 MB.

