
Note: No compatibility mode selected!


Circuit: NOR2 seed characterization sample 4200006

Doing analysis at TEMP = 74.496800 and TNOM = 27.000000

Using SPARSE 1.3 as Direct Linear Solver

Initial Transient Solution
--------------------------

Node                                   Voltage
----                                   -------
vdd                                    1.65352
in                                           0
out                                    1.65352
pmid                                   1.65352
vin#branch                                   0
vdd#branch                        -5.70201e-10

 Reference value :  4.68054e-08
 Reference value :  1.07698e-07
No. of Data Rows : 60044

  Measurements for Transient Analysis

tphl                =  1.30431e-10 targ=  2.34061e-09 trig=  2.21018e-09
tplh                =  3.16226e-10 targ=  2.29468e-08 trig=  2.26305e-08
i_vdd_avg           =  -4.89671e-06 from=  5.00000e-09 to=  1.10002e-07
power_avg_uw        =  8.09681e+00


Total analysis time (seconds) = 0.479485

Total elapsed time (seconds) = 0.548 

Total DRAM available = 16384.000 MB.
DRAM currently available =  100.703 MB.
Maximum ngspice program size =   12.562 MB.
Current ngspice program size =   11.594 MB.

