
Note: No compatibility mode selected!


Circuit: INV seed characterization sample 4200038

Doing analysis at TEMP = 42.271300 and TNOM = 27.000000

Using SPARSE 1.3 as Direct Linear Solver

Initial Transient Solution
--------------------------

Node                                   Voltage
----                                   -------
vdd                                    1.90053
in                                           0
out                                    1.90053
vin#branch                                   0
vdd#branch                        -5.39287e-11

 Reference value :  6.98912e-08
No. of Data Rows : 60044

  Measurements for Transient Analysis

tphl                =  9.75195e-11 targ=  2.24958e-09 trig=  2.15206e-09
tplh                =  1.15124e-10 targ=  2.25713e-08 trig=  2.24562e-08
i_vdd_avg           =  -2.65926e-06 from=  5.00000e-09 to=  1.10001e-07
power_avg_uw        =  5.05401e+00


Total analysis time (seconds) = 0.301326

Total elapsed time (seconds) = 0.377 

Total DRAM available = 16384.000 MB.
DRAM currently available =  109.641 MB.
Maximum ngspice program size =   12.625 MB.
Current ngspice program size =   11.750 MB.

