
Note: No compatibility mode selected!


Circuit: XOR2 seed characterization sample 4200048

Doing analysis at TEMP = -13.068800 and TNOM = 27.000000

Using SPARSE 1.3 as Direct Linear Solver

Initial Transient Solution
--------------------------

Node                                   Voltage
----                                   -------
vdd                                    1.62678
in                                           0
b                                      1.62678
abar                                   1.62678
bbar                               1.41345e-09
out                                    1.62678
vb#branch                                    0
vin#branch                         1.98978e-12
vdd#branch                        -1.04414e-11

 Reference value :  2.40208e-08
 Reference value :  5.67789e-08
 Reference value :  8.96969e-08
No. of Data Rows : 60044

  Measurements for Transient Analysis

tphl                =  1.95899e-10 targ=  2.30984e-09 trig=  2.11395e-09
tplh                =  2.49047e-10 targ=  2.25909e-08 trig=  2.23418e-08
i_vdd_avg           =  -2.53436e-06 from=  5.00000e-09 to=  1.10001e-07
power_avg_uw        =  4.12285e+00


Total analysis time (seconds) = 0.858479

Total elapsed time (seconds) = 0.937 

Total DRAM available = 16384.000 MB.
DRAM currently available =  133.328 MB.
Maximum ngspice program size =   12.578 MB.
Current ngspice program size =   11.969 MB.

