
Note: No compatibility mode selected!


Circuit: NAND2 seed characterization sample 4113035

Doing analysis at TEMP = 45.162400 and TNOM = 27.000000

Using SPARSE 1.3 as Direct Linear Solver

Initial Transient Solution
--------------------------

Node                                   Voltage
----                                   -------
vdd                                    1.68629
in                                           0
out                                    1.68629
nmid                                 0.0118251
vin#branch                                   0
vdd#branch                        -1.73084e-12

 Reference value :  4.33186e-08
 Reference value :  1.04814e-07
No. of Data Rows : 60044

  Measurements for Transient Analysis

tphl                =  1.15945e-09 targ=  3.29125e-09 trig=  2.13180e-09
tplh                =  5.60062e-10 targ=  2.29555e-08 trig=  2.23954e-08
i_vdd_avg           =  -4.28353e-06 from=  5.00000e-09 to=  1.10000e-07
power_avg_uw        =  7.22327e+00


Total analysis time (seconds) = 0.472678

Total elapsed time (seconds) = 0.555 

Total DRAM available = 16384.000 MB.
DRAM currently available =  256.078 MB.
Maximum ngspice program size =   13.609 MB.
Current ngspice program size =   11.844 MB.

