
Note: No compatibility mode selected!


Circuit: INV seed characterization sample 4113008

Doing analysis at TEMP = 58.648200 and TNOM = 27.000000

Using SPARSE 1.3 as Direct Linear Solver

Initial Transient Solution
--------------------------

Node                                   Voltage
----                                   -------
vdd                                    1.64422
in                                           0
out                                    1.64422
vin#branch                                   0
vdd#branch                        -2.26019e-12

 Reference value :  6.35344e-08
No. of Data Rows : 60044

  Measurements for Transient Analysis

tphl                =  1.76422e-10 targ=  2.36627e-09 trig=  2.18985e-09
tplh                =  2.07376e-10 targ=  2.27769e-08 trig=  2.25695e-08
i_vdd_avg           =  -1.59315e-06 from=  5.00000e-09 to=  1.10000e-07
power_avg_uw        =  2.61949e+00


Total analysis time (seconds) = 0.322292

Total elapsed time (seconds) = 0.398 

Total DRAM available = 16384.000 MB.
DRAM currently available =  274.484 MB.
Maximum ngspice program size =   12.562 MB.
Current ngspice program size =   11.656 MB.

