
Note: No compatibility mode selected!


Circuit: INV seed characterization sample 4113022

Doing analysis at TEMP = 67.183500 and TNOM = 27.000000

Using SPARSE 1.3 as Direct Linear Solver

Initial Transient Solution
--------------------------

Node                                   Voltage
----                                   -------
vdd                                    1.73645
in                                           0
out                                    1.73645
vin#branch                                   0
vdd#branch                        -2.02177e-12

 Reference value :  5.45584e-08
No. of Data Rows : 60047

  Measurements for Transient Analysis

tphl                =  5.96638e-10 targ=  2.67235e-09 trig=  2.07571e-09
tplh                =  9.94206e-10 targ=  2.32213e-08 trig=  2.22271e-08
i_vdd_avg           =  -4.22591e-06 from=  5.00000e-09 to=  1.10002e-07
power_avg_uw        =  7.33809e+00


Total analysis time (seconds) = 0.358015

Total elapsed time (seconds) = 0.443 

Total DRAM available = 16384.000 MB.
DRAM currently available =  252.297 MB.
Maximum ngspice program size =   12.594 MB.
Current ngspice program size =   11.922 MB.

