
Note: No compatibility mode selected!


Circuit: NAND2 seed characterization sample 4113043

Doing analysis at TEMP = 81.617200 and TNOM = 27.000000

Using SPARSE 1.3 as Direct Linear Solver

Initial Transient Solution
--------------------------

Node                                   Voltage
----                                   -------
vdd                                    1.95537
in                                           0
out                                    1.95537
nmid                                 0.0472206
vin#branch                                   0
vdd#branch                        -2.58484e-12

 Reference value :  4.64065e-08
 Reference value :  1.07022e-07
No. of Data Rows : 60047

  Measurements for Transient Analysis

tphl                =  2.30410e-10 targ=  2.43615e-09 trig=  2.20574e-09
tplh                =  1.38247e-10 targ=  2.27555e-08 trig=  2.26172e-08
i_vdd_avg           =  -1.71614e-06 from=  5.00000e-09 to=  1.10002e-07
power_avg_uw        =  3.35569e+00


Total analysis time (seconds) = 0.481542

Total elapsed time (seconds) = 0.553 

Total DRAM available = 16384.000 MB.
DRAM currently available =  169.828 MB.
Maximum ngspice program size =   14.094 MB.
Current ngspice program size =   14.094 MB.

