
Note: No compatibility mode selected!


Circuit: XOR2 seed characterization sample 4113016

Doing analysis at TEMP = 18.856700 and TNOM = 27.000000

Using SPARSE 1.3 as Direct Linear Solver

Initial Transient Solution
--------------------------

Node                                   Voltage
----                                   -------
vdd                                    1.87725
in                                           0
b                                      1.87725
abar                                   1.87725
bbar                               1.11069e-09
out                                    1.87725
vb#branch                                    0
vin#branch                          1.9303e-12
vdd#branch                        -1.14001e-11

 Reference value :  2.73800e-08
 Reference value :  6.27900e-08
 Reference value :  9.76795e-08
No. of Data Rows : 60044

  Measurements for Transient Analysis

tphl                =  3.23538e-10 targ=  2.35078e-09 trig=  2.02725e-09
tplh                =  4.04416e-10 targ=  2.24862e-08 trig=  2.20817e-08
i_vdd_avg           =  -8.13931e-06 from=  5.00000e-09 to=  1.10002e-07
power_avg_uw        =  1.52795e+01


Total analysis time (seconds) = 0.816946

Total elapsed time (seconds) = 0.886 

Total DRAM available = 16384.000 MB.
DRAM currently available =  261.938 MB.
Maximum ngspice program size =   12.578 MB.
Current ngspice program size =   11.844 MB.

