
Note: No compatibility mode selected!


Circuit: NOR2 seed characterization sample 4113009

Doing analysis at TEMP = -17.333200 and TNOM = 27.000000

Using SPARSE 1.3 as Direct Linear Solver

Initial Transient Solution
--------------------------

Node                                   Voltage
----                                   -------
vdd                                    1.63424
in                                           0
out                                    1.63424
pmid                                   1.63424
vin#branch                                   0
vdd#branch                        -3.28865e-12

 Reference value :  4.81118e-08
 Reference value :  1.09749e-07
No. of Data Rows : 60041

  Measurements for Transient Analysis

tphl                =  1.00648e-10 targ=  2.12605e-09 trig=  2.02541e-09
tplh                =  5.88575e-10 targ=  2.26648e-08 trig=  2.20762e-08
i_vdd_avg           =  -6.20056e-07 from=  5.00000e-09 to=  1.10001e-07
power_avg_uw        =  1.01332e+00


Total analysis time (seconds) = 0.468785

Total elapsed time (seconds) = 0.536 

Total DRAM available = 16384.000 MB.
DRAM currently available =  253.922 MB.
Maximum ngspice program size =   12.625 MB.
Current ngspice program size =   11.750 MB.

