
Note: No compatibility mode selected!


Circuit: INV seed characterization sample 4113025

Doing analysis at TEMP = 86.175200 and TNOM = 27.000000

Using SPARSE 1.3 as Direct Linear Solver

Initial Transient Solution
--------------------------

Node                                   Voltage
----                                   -------
vdd                                    1.79346
in                                           0
out                                    1.79346
vin#branch                                   0
vdd#branch                        -3.20653e-12

 Reference value :  6.22885e-08
No. of Data Rows : 60047

  Measurements for Transient Analysis

tphl                =  1.27063e-10 targ=  2.21981e-09 trig=  2.09274e-09
tplh                =  1.49538e-10 targ=  2.24278e-08 trig=  2.22782e-08
i_vdd_avg           =  -8.02510e-07 from=  5.00000e-09 to=  1.10002e-07
power_avg_uw        =  1.43927e+00


Total analysis time (seconds) = 0.334455

Total elapsed time (seconds) = 0.411 

Total DRAM available = 16384.000 MB.
DRAM currently available =  239.547 MB.
Maximum ngspice program size =   12.609 MB.
Current ngspice program size =   11.922 MB.

