
Note: No compatibility mode selected!


Circuit: NOR2 seed characterization sample 4113037

Doing analysis at TEMP = 20.310800 and TNOM = 27.000000

Using SPARSE 1.3 as Direct Linear Solver

Initial Transient Solution
--------------------------

Node                                   Voltage
----                                   -------
vdd                                    1.91254
in                                           0
out                                    1.91254
pmid                                   1.91254
vin#branch                                   0
vdd#branch                        -3.88316e-12

 Reference value :  3.98511e-08
 Reference value :  9.76570e-08
No. of Data Rows : 60044

  Measurements for Transient Analysis

tphl                =  2.32160e-10 targ=  2.44517e-09 trig=  2.21301e-09
tplh                =  7.49161e-10 targ=  2.33882e-08 trig=  2.26390e-08
i_vdd_avg           =  -5.36984e-06 from=  5.00000e-09 to=  1.10001e-07
power_avg_uw        =  1.02700e+01


Total analysis time (seconds) = 0.505916

Total elapsed time (seconds) = 0.587 

Total DRAM available = 16384.000 MB.
DRAM currently available =  229.781 MB.
Maximum ngspice program size =   12.594 MB.
Current ngspice program size =   12.094 MB.

