
Note: No compatibility mode selected!


Circuit: INV seed characterization sample 4113038

Doing analysis at TEMP = 25.983500 and TNOM = 27.000000

Using SPARSE 1.3 as Direct Linear Solver

Initial Transient Solution
--------------------------

Node                                   Voltage
----                                   -------
vdd                                    1.86973
in                                           0
out                                    1.86973
vin#branch                                   0
vdd#branch                        -1.91792e-12

 Reference value :  6.48338e-08
No. of Data Rows : 60044

  Measurements for Transient Analysis

tphl                =  3.00036e-10 targ=  2.48023e-09 trig=  2.18019e-09
tplh                =  3.73037e-10 targ=  2.29136e-08 trig=  2.25406e-08
i_vdd_avg           =  -4.99400e-06 from=  5.00000e-09 to=  1.10002e-07
power_avg_uw        =  9.33743e+00


Total analysis time (seconds) = 0.315069

Total elapsed time (seconds) = 0.392 

Total DRAM available = 16384.000 MB.
DRAM currently available =  218.297 MB.
Maximum ngspice program size =   12.562 MB.
Current ngspice program size =   11.688 MB.

