
Note: No compatibility mode selected!


Circuit: NAND2 seed characterization sample 4113015

Doing analysis at TEMP = -19.131800 and TNOM = 27.000000

Using SPARSE 1.3 as Direct Linear Solver

Initial Transient Solution
--------------------------

Node                                   Voltage
----                                   -------
vdd                                     1.7471
in                                           0
out                                     1.7471
nmid                               0.000109007
vin#branch                                   0
vdd#branch                        -1.75742e-12

 Reference value :  4.83421e-08
 Reference value :  1.10423e-07
No. of Data Rows : 60047

  Measurements for Transient Analysis

tphl                =  5.22890e-10 targ=  2.68045e-09 trig=  2.15756e-09
tplh                =  3.17502e-10 targ=  2.27902e-08 trig=  2.24727e-08
i_vdd_avg           =  -5.41390e-06 from=  5.00000e-09 to=  1.10001e-07
power_avg_uw        =  9.45862e+00


Total analysis time (seconds) = 0.464585

Total elapsed time (seconds) = 0.533 

Total DRAM available = 16384.000 MB.
DRAM currently available =  261.938 MB.
Maximum ngspice program size =   12.594 MB.
Current ngspice program size =   12.266 MB.

