
Note: No compatibility mode selected!


Circuit: NAND2 seed characterization sample 4113034

Doing analysis at TEMP = 31.844400 and TNOM = 27.000000

Using SPARSE 1.3 as Direct Linear Solver

Initial Transient Solution
--------------------------

Node                                   Voltage
----                                   -------
vdd                                    1.62627
in                                           0
out                                    1.62627
nmid                                0.00586537
vin#branch                                   0
vdd#branch                        -1.65281e-12

 Reference value :  4.72596e-08
 Reference value :  1.09018e-07
No. of Data Rows : 60041

  Measurements for Transient Analysis

tphl                =  6.33977e-10 targ=  2.68628e-09 trig=  2.05231e-09
tplh                =  2.49772e-10 targ=  2.24067e-08 trig=  2.21569e-08
i_vdd_avg           =  -2.54524e-06 from=  5.00000e-09 to=  1.10000e-07
power_avg_uw        =  4.13925e+00


Total analysis time (seconds) = 0.468607

Total elapsed time (seconds) = 0.537 

Total DRAM available = 16384.000 MB.
DRAM currently available =  256.078 MB.
Maximum ngspice program size =   12.562 MB.
Current ngspice program size =   11.719 MB.

