
Note: No compatibility mode selected!


Circuit: NOR2 seed characterization sample 4113042

Doing analysis at TEMP = 37.694000 and TNOM = 27.000000

Using SPARSE 1.3 as Direct Linear Solver

Initial Transient Solution
--------------------------

Node                                   Voltage
----                                   -------
vdd                                    1.67223
in                                           0
out                                    1.67223
pmid                                   1.67223
vin#branch                                   0
vdd#branch                        -3.42222e-12

 Reference value :  4.28765e-08
 Reference value :  1.03208e-07
No. of Data Rows : 60044

  Measurements for Transient Analysis

tphl                =  2.86872e-10 targ=  2.52364e-09 trig=  2.23676e-09
tplh                =  1.20668e-09 targ=  2.39170e-08 trig=  2.27103e-08
i_vdd_avg           =  -2.34878e-06 from=  5.00000e-09 to=  1.10000e-07
power_avg_uw        =  3.92770e+00


Total analysis time (seconds) = 0.49001

Total elapsed time (seconds) = 0.571 

Total DRAM available = 16384.000 MB.
DRAM currently available =  186.516 MB.
Maximum ngspice program size =   14.719 MB.
Current ngspice program size =   14.719 MB.

