
Note: No compatibility mode selected!


Circuit: INV seed characterization sample 4113024

Doing analysis at TEMP = -13.196000 and TNOM = 27.000000

Using SPARSE 1.3 as Direct Linear Solver

Initial Transient Solution
--------------------------

Node                                   Voltage
----                                   -------
vdd                                    1.69786
in                                           0
out                                    1.69786
vin#branch                                   0
vdd#branch                        -1.70816e-12

 Reference value :  5.48194e-08
No. of Data Rows : 60044

  Measurements for Transient Analysis

tphl                =  4.71221e-10 targ=  2.58044e-09 trig=  2.10922e-09
tplh                =  5.83915e-10 targ=  2.29116e-08 trig=  2.23276e-08
i_vdd_avg           =  -4.71537e-06 from=  5.00000e-09 to=  1.10002e-07
power_avg_uw        =  8.00604e+00


Total analysis time (seconds) = 0.358174

Total elapsed time (seconds) = 0.442 

Total DRAM available = 16384.000 MB.
DRAM currently available =  252.297 MB.
Maximum ngspice program size =   12.562 MB.
Current ngspice program size =   11.938 MB.

