
Note: No compatibility mode selected!


Circuit: NAND2 seed characterization sample 4113044

Doing analysis at TEMP = 86.767200 and TNOM = 27.000000

Using SPARSE 1.3 as Direct Linear Solver

Initial Transient Solution
--------------------------

Node                                   Voltage
----                                   -------
vdd                                    1.83437
in                                           0
out                                    1.83437
nmid                                 0.0455161
vin#branch                                   0
vdd#branch                        -2.43426e-12

 Reference value :  4.62091e-08
 Reference value :  1.06975e-07
No. of Data Rows : 60044

  Measurements for Transient Analysis

tphl                =  3.92913e-10 targ=  2.58997e-09 trig=  2.19705e-09
tplh                =  1.85427e-10 targ=  2.27766e-08 trig=  2.25912e-08
i_vdd_avg           =  -2.51272e-06 from=  5.00000e-09 to=  1.10001e-07
power_avg_uw        =  4.60925e+00


Total analysis time (seconds) = 0.482671

Total elapsed time (seconds) = 0.552 

Total DRAM available = 16384.000 MB.
DRAM currently available =  181.391 MB.
Maximum ngspice program size =   14.500 MB.
Current ngspice program size =   14.500 MB.

