
Note: No compatibility mode selected!


Circuit: XOR2 seed characterization sample 4303006

Doing analysis at TEMP = 43.200100 and TNOM = 27.000000

Using SPARSE 1.3 as Direct Linear Solver

Initial Transient Solution
--------------------------

Node                                   Voltage
----                                   -------
vdd                                    1.68866
in                                           0
b                                      1.68866
abar                                   1.68866
bbar                               4.71711e-09
out                                    1.68866
vb#branch                                    0
vin#branch                         2.11598e-11
vdd#branch                        -4.42839e-11

 Reference value :  2.67876e-08
 Reference value :  6.20973e-08
 Reference value :  9.59593e-08
No. of Data Rows : 60044

  Measurements for Transient Analysis

tphl                =  4.97395e-10 targ=  2.66755e-09 trig=  2.17015e-09
tplh                =  5.12094e-10 targ=  2.30225e-08 trig=  2.25105e-08
i_vdd_avg           =  -5.26857e-06 from=  5.00000e-09 to=  1.10002e-07
power_avg_uw        =  8.89683e+00


Total analysis time (seconds) = 0.846757

Total elapsed time (seconds) = 0.918 

Total DRAM available = 16384.000 MB.
DRAM currently available =  101.875 MB.
Maximum ngspice program size =   12.562 MB.
Current ngspice program size =   12.062 MB.

