
Note: No compatibility mode selected!


Circuit: XOR2 seed characterization sample 4303003

Doing analysis at TEMP = 61.952000 and TNOM = 27.000000

Using SPARSE 1.3 as Direct Linear Solver

Initial Transient Solution
--------------------------

Node                                   Voltage
----                                   -------
vdd                                    1.85627
in                                           0
b                                      1.85627
abar                                   1.85627
bbar                               1.60226e-08
out                                    1.85627
vb#branch                                    0
vin#branch                         3.23392e-11
vdd#branch                        -6.88898e-11

 Reference value :  2.62602e-08
 Reference value :  6.13576e-08
 Reference value :  9.83996e-08
No. of Data Rows : 60041

  Measurements for Transient Analysis

tphl                =  2.69567e-10 targ=  2.28287e-09 trig=  2.01330e-09
tplh                =  3.10851e-10 targ=  2.23507e-08 trig=  2.20399e-08
i_vdd_avg           =  -1.66924e-06 from=  5.00000e-09 to=  1.10000e-07
power_avg_uw        =  3.09856e+00


Total analysis time (seconds) = 0.799956

Total elapsed time (seconds) = 0.873 

Total DRAM available = 16384.000 MB.
DRAM currently available =  119.000 MB.
Maximum ngspice program size =   12.578 MB.
Current ngspice program size =   12.438 MB.

