
Note: No compatibility mode selected!


Circuit: INV seed characterization sample 4303012

Doing analysis at TEMP = 79.676100 and TNOM = 27.000000

Using SPARSE 1.3 as Direct Linear Solver

Initial Transient Solution
--------------------------

Node                                   Voltage
----                                   -------
vdd                                    1.96854
in                                           0
out                                    1.96854
vin#branch                                   0
vdd#branch                        -1.87411e-10

 Reference value :  6.02660e-08
No. of Data Rows : 60047

  Measurements for Transient Analysis

tphl                =  2.68962e-10 targ=  2.40047e-09 trig=  2.13151e-09
tplh                =  2.85844e-10 targ=  2.26804e-08 trig=  2.23945e-08
i_vdd_avg           =  -5.75841e-06 from=  5.00000e-09 to=  1.10001e-07
power_avg_uw        =  1.13357e+01


Total analysis time (seconds) = 0.344665

Total elapsed time (seconds) = 0.423 

Total DRAM available = 16384.000 MB.
DRAM currently available =   97.828 MB.
Maximum ngspice program size =   12.797 MB.
Current ngspice program size =   11.953 MB.

