
Note: No compatibility mode selected!


Circuit: XOR2 seed characterization sample 4303038

Doing analysis at TEMP = 4.392030 and TNOM = 27.000000

Using SPARSE 1.3 as Direct Linear Solver

Initial Transient Solution
--------------------------

Node                                   Voltage
----                                   -------
vdd                                    1.70593
in                                           0
b                                      1.70593
abar                                   1.70593
bbar                               1.50503e-09
out                                    1.70593
vb#branch                                    0
vin#branch                         3.61982e-12
vdd#branch                        -1.36512e-11

 Reference value :  2.23420e-08
 Reference value :  5.27100e-08
 Reference value :  8.41060e-08
No. of Data Rows : 60047

  Measurements for Transient Analysis

tphl                =  2.79345e-10 targ=  2.47185e-09 trig=  2.19250e-09
tplh                =  3.05243e-10 targ=  2.28828e-08 trig=  2.25775e-08
i_vdd_avg           =  -4.01459e-06 from=  5.00000e-09 to=  1.10001e-07
power_avg_uw        =  6.84862e+00


Total analysis time (seconds) = 0.894184

Total elapsed time (seconds) = 0.974 

Total DRAM available = 16384.000 MB.
DRAM currently available =  163.844 MB.
Maximum ngspice program size =   12.578 MB.
Current ngspice program size =   11.719 MB.

