
Note: No compatibility mode selected!


Circuit: NOR2 seed characterization sample 4303031

Doing analysis at TEMP = 99.998900 and TNOM = 27.000000

Using SPARSE 1.3 as Direct Linear Solver

Initial Transient Solution
--------------------------

Node                                   Voltage
----                                   -------
vdd                                     1.6701
in                                           0
out                                     1.6701
pmid                                    1.6701
vin#branch                                   0
vdd#branch                        -2.25503e-09

 Reference value :  4.50359e-08
 Reference value :  1.03843e-07
No. of Data Rows : 60041

  Measurements for Transient Analysis

tphl                =  9.04529e-11 targ=  2.19689e-09 trig=  2.10644e-09
tplh                =  3.46225e-10 targ=  2.26655e-08 trig=  2.23193e-08
i_vdd_avg           =  -4.42623e-06 from=  5.00000e-09 to=  1.10001e-07
power_avg_uw        =  7.39224e+00


Total analysis time (seconds) = 0.494224

Total elapsed time (seconds) = 0.567 

Total DRAM available = 16384.000 MB.
DRAM currently available =  125.016 MB.
Maximum ngspice program size =   12.562 MB.
Current ngspice program size =   12.328 MB.

