
Note: No compatibility mode selected!


Circuit: NAND2 seed characterization sample 4303040

Doing analysis at TEMP = -2.427520 and TNOM = 27.000000

Using SPARSE 1.3 as Direct Linear Solver

Initial Transient Solution
--------------------------

Node                                   Voltage
----                                   -------
vdd                                    1.66846
in                                           0
out                                    1.66846
nmid                                 0.0373569
vin#branch                                   0
vdd#branch                        -1.86328e-12

 Reference value :  3.89905e-08
 Reference value :  9.20148e-08
No. of Data Rows : 60044

  Measurements for Transient Analysis

tphl                =  2.42693e-10 targ=  2.36157e-09 trig=  2.11888e-09
tplh                =  1.14490e-10 targ=  2.24711e-08 trig=  2.23566e-08
i_vdd_avg           =  -3.02994e-06 from=  5.00000e-09 to=  1.10001e-07
power_avg_uw        =  5.05533e+00


Total analysis time (seconds) = 0.546497

Total elapsed time (seconds) = 0.626 

Total DRAM available = 16384.000 MB.
DRAM currently available =  163.844 MB.
Maximum ngspice program size =   12.594 MB.
Current ngspice program size =   11.875 MB.

