
Note: No compatibility mode selected!


Circuit: NAND2 seed characterization sample 4303001

Doing analysis at TEMP = 95.321300 and TNOM = 27.000000

Using SPARSE 1.3 as Direct Linear Solver

Initial Transient Solution
--------------------------

Node                                   Voltage
----                                   -------
vdd                                    1.69428
in                                           0
out                                    1.69428
nmid                                 0.0562117
vin#branch                                   0
vdd#branch                        -2.60518e-11

 Reference value :  4.66359e-08
 Reference value :  1.07241e-07
No. of Data Rows : 60041

  Measurements for Transient Analysis

tphl                =  8.52069e-10 targ=  2.96353e-09 trig=  2.11146e-09
tplh                =  2.61181e-10 targ=  2.25956e-08 trig=  2.23344e-08
i_vdd_avg           =  -3.43809e-06 from=  5.00000e-09 to=  1.10001e-07
power_avg_uw        =  5.82509e+00


Total analysis time (seconds) = 0.476158

Total elapsed time (seconds) = 0.546 

Total DRAM available = 16384.000 MB.
DRAM currently available =  105.141 MB.
Maximum ngspice program size =   12.562 MB.
Current ngspice program size =   11.906 MB.

