
Note: No compatibility mode selected!


Circuit: XOR2 seed characterization sample 4303048

Doing analysis at TEMP = 72.479600 and TNOM = 27.000000

Using SPARSE 1.3 as Direct Linear Solver

Initial Transient Solution
--------------------------

Node                                   Voltage
----                                   -------
vdd                                    1.94593
in                                           0
b                                      1.94593
abar                                   1.94593
bbar                               1.89636e-08
out                                    1.94593
vb#branch                                    0
vin#branch                         7.86452e-11
vdd#branch                        -1.52987e-10

 Reference value :  2.62967e-08
 Reference value :  6.10748e-08
 Reference value :  9.83548e-08
No. of Data Rows : 60044

  Measurements for Transient Analysis

tphl                =  1.38227e-10 targ=  2.21914e-09 trig=  2.08091e-09
tplh                =  1.89712e-10 targ=  2.24325e-08 trig=  2.22427e-08
i_vdd_avg           =  -1.04459e-06 from=  5.00000e-09 to=  1.10001e-07
power_avg_uw        =  2.03270e+00


Total analysis time (seconds) = 0.800709

Total elapsed time (seconds) = 0.873 

Total DRAM available = 16384.000 MB.
DRAM currently available =  182.500 MB.
Maximum ngspice program size =   12.578 MB.
Current ngspice program size =   12.516 MB.

