
Note: No compatibility mode selected!


Circuit: XOR2 seed characterization sample 4303030

Doing analysis at TEMP = 46.224700 and TNOM = 27.000000

Using SPARSE 1.3 as Direct Linear Solver

Initial Transient Solution
--------------------------

Node                                   Voltage
----                                   -------
vdd                                    1.80257
in                                           0
b                                      1.80257
abar                                   1.80257
bbar                               4.33736e-09
out                                    1.80257
vb#branch                                    0
vin#branch                         3.95029e-11
vdd#branch                        -7.73624e-11

 Reference value :  2.58787e-08
 Reference value :  6.03538e-08
 Reference value :  9.44378e-08
No. of Data Rows : 60041

  Measurements for Transient Analysis

tphl                =  3.15013e-10 targ=  2.44843e-09 trig=  2.13341e-09
tplh                =  3.30382e-10 targ=  2.27306e-08 trig=  2.24002e-08
i_vdd_avg           =  -4.99270e-06 from=  5.00000e-09 to=  1.10001e-07
power_avg_uw        =  8.99969e+00


Total analysis time (seconds) = 0.831867

Total elapsed time (seconds) = 0.906 

Total DRAM available = 16384.000 MB.
DRAM currently available =  125.016 MB.
Maximum ngspice program size =   12.578 MB.
Current ngspice program size =   11.844 MB.

