
Note: No compatibility mode selected!


Circuit: NOR2 seed characterization sample 4303010

Doing analysis at TEMP = 93.362000 and TNOM = 27.000000

Using SPARSE 1.3 as Direct Linear Solver

Initial Transient Solution
--------------------------

Node                                   Voltage
----                                   -------
vdd                                    1.88926
in                                           0
out                                    1.88926
pmid                                   1.88926
vin#branch                                   0
vdd#branch                        -6.84915e-10

 Reference value :  3.87203e-08
 Reference value :  9.22277e-08
No. of Data Rows : 60041

  Measurements for Transient Analysis

tphl                =  1.53744e-10 targ=  2.29707e-09 trig=  2.14333e-09
tplh                =  5.96994e-10 targ=  2.30270e-08 trig=  2.24300e-08
i_vdd_avg           =  -4.74037e-06 from=  5.00000e-09 to=  1.10000e-07
power_avg_uw        =  8.95579e+00


Total analysis time (seconds) = 0.532173

Total elapsed time (seconds) = 0.611 

Total DRAM available = 16384.000 MB.
DRAM currently available =  105.047 MB.
Maximum ngspice program size =   12.562 MB.
Current ngspice program size =   11.594 MB.

