
Note: No compatibility mode selected!


Circuit: XOR2 seed characterization sample 4303042

Doing analysis at TEMP = -7.457920 and TNOM = 27.000000

Using SPARSE 1.3 as Direct Linear Solver

Initial Transient Solution
--------------------------

Node                                   Voltage
----                                   -------
vdd                                    1.64605
in                                           0
b                                      1.64605
abar                                   1.64605
bbar                               9.86066e-10
out                                    1.64605
vb#branch                                    0
vin#branch                         2.60079e-12
vdd#branch                        -1.16102e-11

 Reference value :  2.54469e-08
 Reference value :  5.99889e-08
 Reference value :  9.63809e-08
No. of Data Rows : 60044

  Measurements for Transient Analysis

tphl                =  1.65745e-10 targ=  2.25471e-09 trig=  2.08897e-09
tplh                =  2.19773e-10 targ=  2.24867e-08 trig=  2.22669e-08
i_vdd_avg           =  -3.26251e-06 from=  5.00000e-09 to=  1.10001e-07
power_avg_uw        =  5.37025e+00


Total analysis time (seconds) = 0.812988

Total elapsed time (seconds) = 0.890 

Total DRAM available = 16384.000 MB.
DRAM currently available =  150.453 MB.
Maximum ngspice program size =   12.578 MB.
Current ngspice program size =   11.812 MB.

