
Note: No compatibility mode selected!


Circuit: INV seed characterization sample 4303014

Doing analysis at TEMP = 27.733600 and TNOM = 27.000000

Using SPARSE 1.3 as Direct Linear Solver

Initial Transient Solution
--------------------------

Node                                   Voltage
----                                   -------
vdd                                    1.90976
in                                           0
out                                    1.90976
vin#branch                                   0
vdd#branch                        -4.71647e-12

 Reference value :  6.15499e-08
No. of Data Rows : 60041

  Measurements for Transient Analysis

tphl                =  1.86446e-10 targ=  2.25089e-09 trig=  2.06444e-09
tplh                =  2.42223e-10 targ=  2.24356e-08 trig=  2.21933e-08
i_vdd_avg           =  -1.19234e-06 from=  5.00000e-09 to=  1.10001e-07
power_avg_uw        =  2.27708e+00


Total analysis time (seconds) = 0.336579

Total elapsed time (seconds) = 0.414 

Total DRAM available = 16384.000 MB.
DRAM currently available =  110.297 MB.
Maximum ngspice program size =   12.594 MB.
Current ngspice program size =   11.656 MB.

