
Note: No compatibility mode selected!


Circuit: NOR2 seed characterization sample 4303027

Doing analysis at TEMP = 31.410500 and TNOM = 27.000000

Using SPARSE 1.3 as Direct Linear Solver

Initial Transient Solution
--------------------------

Node                                   Voltage
----                                   -------
vdd                                     1.7962
in                                           0
out                                     1.7962
pmid                                    1.7962
vin#branch                                   0
vdd#branch                        -1.10546e-11

 Reference value :  4.08953e-08
 Reference value :  9.66651e-08
No. of Data Rows : 60044

  Measurements for Transient Analysis

tphl                =  3.47772e-11 targ=  2.07985e-09 trig=  2.04507e-09
tplh                =  9.65682e-11 targ=  2.22318e-08 trig=  2.21352e-08
i_vdd_avg           =  -3.21135e-07 from=  5.00000e-09 to=  1.10001e-07
power_avg_uw        =  5.76822e-01


Total analysis time (seconds) = 0.526363

Total elapsed time (seconds) = 0.604 

Total DRAM available = 16384.000 MB.
DRAM currently available =  101.406 MB.
Maximum ngspice program size =   12.562 MB.
Current ngspice program size =   11.875 MB.

