
Note: No compatibility mode selected!


Circuit: INV seed characterization sample 4303033

Doing analysis at TEMP = 46.874700 and TNOM = 27.000000

Using SPARSE 1.3 as Direct Linear Solver

Initial Transient Solution
--------------------------

Node                                   Voltage
----                                   -------
vdd                                    1.85291
in                                           0
out                                    1.85291
vin#branch                                   0
vdd#branch                        -1.33193e-11

 Reference value :  7.34997e-08
No. of Data Rows : 60044

  Measurements for Transient Analysis

tphl                =  1.58050e-10 targ=  2.18123e-09 trig=  2.02318e-09
tplh                =  1.59205e-10 targ=  2.22287e-08 trig=  2.20695e-08
i_vdd_avg           =  -1.66209e-06 from=  5.00000e-09 to=  1.10002e-07
power_avg_uw        =  3.07970e+00


Total analysis time (seconds) = 0.293404

Total elapsed time (seconds) = 0.364 

Total DRAM available = 16384.000 MB.
DRAM currently available =  158.625 MB.
Maximum ngspice program size =   12.562 MB.
Current ngspice program size =   11.656 MB.

