
Note: No compatibility mode selected!


Circuit: XOR2 seed characterization sample 4303034

Doing analysis at TEMP = 69.690000 and TNOM = 27.000000

Using SPARSE 1.3 as Direct Linear Solver

Initial Transient Solution
--------------------------

Node                                   Voltage
----                                   -------
vdd                                    1.67639
in                                           0
b                                      1.67639
abar                                   1.67639
bbar                               2.06425e-08
out                                    1.67639
vb#branch                                    0
vin#branch                         4.72126e-11
vdd#branch                        -9.54806e-11

 Reference value :  2.63015e-08
 Reference value :  6.11822e-08
 Reference value :  9.58242e-08
No. of Data Rows : 60047

  Measurements for Transient Analysis

tphl                =  3.32355e-10 targ=  2.53998e-09 trig=  2.20762e-09
tplh                =  4.10799e-10 targ=  2.30337e-08 trig=  2.26229e-08
i_vdd_avg           =  -1.47799e-06 from=  5.00000e-09 to=  1.10001e-07
power_avg_uw        =  2.47769e+00


Total analysis time (seconds) = 0.844376

Total elapsed time (seconds) = 0.917 

Total DRAM available = 16384.000 MB.
DRAM currently available =  158.625 MB.
Maximum ngspice program size =   12.578 MB.
Current ngspice program size =   11.688 MB.

