
Note: No compatibility mode selected!


Circuit: NAND2 seed characterization sample 4303018

Doing analysis at TEMP = 20.128900 and TNOM = 27.000000

Using SPARSE 1.3 as Direct Linear Solver

Initial Transient Solution
--------------------------

Node                                   Voltage
----                                   -------
vdd                                    1.79983
in                                           0
out                                    1.79983
nmid                                 0.0461217
vin#branch                                   0
vdd#branch                         -2.1392e-12

 Reference value :  4.08047e-08
 Reference value :  9.83878e-08
No. of Data Rows : 60041

  Measurements for Transient Analysis

tphl                =  4.25742e-10 targ=  2.63716e-09 trig=  2.21142e-09
tplh                =  1.91713e-10 targ=  2.28260e-08 trig=  2.26343e-08
i_vdd_avg           =  -2.30089e-06 from=  5.00000e-09 to=  1.10001e-07
power_avg_uw        =  4.14122e+00


Total analysis time (seconds) = 0.503405

Total elapsed time (seconds) = 0.581 

Total DRAM available = 16384.000 MB.
DRAM currently available =  122.406 MB.
Maximum ngspice program size =   12.562 MB.
Current ngspice program size =   11.781 MB.

