
Note: No compatibility mode selected!


Circuit: NOR2 seed characterization sample 4303032

Doing analysis at TEMP = -12.409400 and TNOM = 27.000000

Using SPARSE 1.3 as Direct Linear Solver

Initial Transient Solution
--------------------------

Node                                   Voltage
----                                   -------
vdd                                    1.77556
in                                           0
out                                    1.77556
pmid                                   1.77556
vin#branch                                   0
vdd#branch                          -3.978e-12

 Reference value :  4.56311e-08
 Reference value :  1.04905e-07
No. of Data Rows : 60044

  Measurements for Transient Analysis

tphl                =  1.02293e-10 targ=  2.15334e-09 trig=  2.05104e-09
tplh                =  3.15409e-10 targ=  2.24685e-08 trig=  2.21531e-08
i_vdd_avg           =  -3.27489e-06 from=  5.00000e-09 to=  1.10001e-07
power_avg_uw        =  5.81476e+00


Total analysis time (seconds) = 0.489145

Total elapsed time (seconds) = 0.562 

Total DRAM available = 16384.000 MB.
DRAM currently available =  125.016 MB.
Maximum ngspice program size =   12.562 MB.
Current ngspice program size =   11.844 MB.

