
Note: No compatibility mode selected!


Circuit: XOR2 seed characterization sample 4303026

Doing analysis at TEMP = 87.941900 and TNOM = 27.000000

Using SPARSE 1.3 as Direct Linear Solver

Initial Transient Solution
--------------------------

Node                                   Voltage
----                                   -------
vdd                                    1.71226
in                                           0
b                                      1.71226
abar                                   1.71226
bbar                               3.37751e-08
out                                    1.71226
vb#branch                                    0
vin#branch                         7.28171e-10
vdd#branch                        -1.30578e-09

 Reference value :  2.34628e-08
 Reference value :  5.61729e-08
 Reference value :  8.86389e-08
No. of Data Rows : 60044

  Measurements for Transient Analysis

tphl                =  3.08473e-10 targ=  2.49343e-09 trig=  2.18496e-09
tplh                =  3.99777e-10 targ=  2.29546e-08 trig=  2.25549e-08
i_vdd_avg           =  -6.97344e-06 from=  5.00000e-09 to=  1.10001e-07
power_avg_uw        =  1.19403e+01


Total analysis time (seconds) = 0.862987

Total elapsed time (seconds) = 0.942 

Total DRAM available = 16384.000 MB.
DRAM currently available =  101.406 MB.
Maximum ngspice program size =   12.578 MB.
Current ngspice program size =   11.797 MB.

