
Note: No compatibility mode selected!


Circuit: NAND2 seed characterization sample 4303023

Doing analysis at TEMP = 72.376900 and TNOM = 27.000000

Using SPARSE 1.3 as Direct Linear Solver

Initial Transient Solution
--------------------------

Node                                   Voltage
----                                   -------
vdd                                    1.72297
in                                           0
out                                    1.72297
nmid                                 0.0550382
vin#branch                                   0
vdd#branch                        -3.54613e-11

 Reference value :  4.63215e-08
 Reference value :  1.06556e-07
No. of Data Rows : 60044

  Measurements for Transient Analysis

tphl                =  3.95521e-10 targ=  2.60276e-09 trig=  2.20723e-09
tplh                =  1.93211e-10 targ=  2.28149e-08 trig=  2.26217e-08
i_vdd_avg           =  -5.83652e-06 from=  5.00000e-09 to=  1.10002e-07
power_avg_uw        =  1.00561e+01


Total analysis time (seconds) = 0.472932

Total elapsed time (seconds) = 0.544 

Total DRAM available = 16384.000 MB.
DRAM currently available =  106.766 MB.
Maximum ngspice program size =   13.500 MB.
Current ngspice program size =   12.969 MB.

