
Note: No compatibility mode selected!


Circuit: INV seed characterization sample 4303044

Doing analysis at TEMP = 64.765400 and TNOM = 27.000000

Using SPARSE 1.3 as Direct Linear Solver

Initial Transient Solution
--------------------------

Node                                   Voltage
----                                   -------
vdd                                    1.94127
in                                           0
out                                    1.94127
vin#branch                                   0
vdd#branch                        -1.04012e-10

 Reference value :  6.97920e-08
No. of Data Rows : 60044

  Measurements for Transient Analysis

tphl                =  1.49925e-10 targ=  2.31917e-09 trig=  2.16924e-09
tplh                =  1.50200e-10 targ=  2.26579e-08 trig=  2.25077e-08
i_vdd_avg           =  -2.70071e-06 from=  5.00000e-09 to=  1.10002e-07
power_avg_uw        =  5.24281e+00


Total analysis time (seconds) = 0.300761

Total elapsed time (seconds) = 0.376 

Total DRAM available = 16384.000 MB.
DRAM currently available =  154.578 MB.
Maximum ngspice program size =   12.703 MB.
Current ngspice program size =   12.203 MB.

