
Note: No compatibility mode selected!


Circuit: INV seed characterization sample 4114045

Doing analysis at TEMP = 72.782900 and TNOM = 27.000000

Using SPARSE 1.3 as Direct Linear Solver

Initial Transient Solution
--------------------------

Node                                   Voltage
----                                   -------
vdd                                      1.625
in                                           0
out                                      1.625
vin#branch                                   0
vdd#branch                         -2.3405e-12

 Reference value :  7.07022e-08
No. of Data Rows : 60047

  Measurements for Transient Analysis

tphl                =  1.63175e-10 targ=  2.17068e-09 trig=  2.00751e-09
tplh                =  2.37583e-10 targ=  2.22601e-08 trig=  2.20225e-08
i_vdd_avg           =  -1.62212e-06 from=  5.00000e-09 to=  1.10000e-07
power_avg_uw        =  2.63595e+00


Total analysis time (seconds) = 0.298733

Total elapsed time (seconds) = 0.373 

Total DRAM available = 16384.000 MB.
DRAM currently available =  207.391 MB.
Maximum ngspice program size =   12.781 MB.
Current ngspice program size =   10.938 MB.

