
Note: No compatibility mode selected!


Circuit: INV seed characterization sample 4114037

Doing analysis at TEMP = -7.896660 and TNOM = 27.000000

Using SPARSE 1.3 as Direct Linear Solver

Initial Transient Solution
--------------------------

Node                                   Voltage
----                                   -------
vdd                                     1.7209
in                                           0
out                                     1.7209
vin#branch                                   0
vdd#branch                        -1.73129e-12

 Reference value :  7.25137e-08
No. of Data Rows : 60047

  Measurements for Transient Analysis

tphl                =  1.69978e-10 targ=  2.41266e-09 trig=  2.24268e-09
tplh                =  2.19717e-10 targ=  2.29478e-08 trig=  2.27280e-08
i_vdd_avg           =  -4.53103e-07 from=  5.00000e-09 to=  1.10002e-07
power_avg_uw        =  7.79745e-01


Total analysis time (seconds) = 0.296697

Total elapsed time (seconds) = 0.367 

Total DRAM available = 16384.000 MB.
DRAM currently available =  147.406 MB.
Maximum ngspice program size =   12.609 MB.
Current ngspice program size =   11.703 MB.

