
Note: No compatibility mode selected!


Circuit: NAND2 seed characterization sample 4114018

Doing analysis at TEMP = 92.844100 and TNOM = 27.000000

Using SPARSE 1.3 as Direct Linear Solver

Initial Transient Solution
--------------------------

Node                                   Voltage
----                                   -------
vdd                                    1.65748
in                                           0
out                                    1.65748
nmid                                 0.0435912
vin#branch                                   0
vdd#branch                        -2.29821e-12

 Reference value :  4.78028e-08
 Reference value :  1.09251e-07
No. of Data Rows : 60044

  Measurements for Transient Analysis

tphl                =  6.07394e-10 targ=  2.72629e-09 trig=  2.11889e-09
tplh                =  2.39839e-10 targ=  2.25965e-08 trig=  2.23567e-08
i_vdd_avg           =  -2.87699e-06 from=  5.00000e-09 to=  1.10001e-07
power_avg_uw        =  4.76855e+00


Total analysis time (seconds) = 0.468983

Total elapsed time (seconds) = 0.538 

Total DRAM available = 16384.000 MB.
DRAM currently available =  179.281 MB.
Maximum ngspice program size =   12.859 MB.
Current ngspice program size =   12.859 MB.

