
Note: No compatibility mode selected!


Circuit: INV seed characterization sample 4114009

Doing analysis at TEMP = 63.657600 and TNOM = 27.000000

Using SPARSE 1.3 as Direct Linear Solver

Initial Transient Solution
--------------------------

Node                                   Voltage
----                                   -------
vdd                                     1.6636
in                                           0
out                                     1.6636
vin#branch                                   0
vdd#branch                        -2.79072e-12

 Reference value :  7.18538e-08
No. of Data Rows : 60044

  Measurements for Transient Analysis

tphl                =  1.83424e-10 targ=  2.30261e-09 trig=  2.11919e-09
tplh                =  3.02137e-10 targ=  2.26597e-08 trig=  2.23576e-08
i_vdd_avg           =  -3.29185e-06 from=  5.00000e-09 to=  1.10002e-07
power_avg_uw        =  5.47632e+00


Total analysis time (seconds) = 0.297834

Total elapsed time (seconds) = 0.369 

Total DRAM available = 16384.000 MB.
DRAM currently available =  200.312 MB.
Maximum ngspice program size =   12.562 MB.
Current ngspice program size =   11.688 MB.

