
Note: No compatibility mode selected!


Circuit: INV seed characterization sample 4114025

Doing analysis at TEMP = 95.160600 and TNOM = 27.000000

Using SPARSE 1.3 as Direct Linear Solver

Initial Transient Solution
--------------------------

Node                                   Voltage
----                                   -------
vdd                                    1.95652
in                                           0
out                                    1.95652
vin#branch                                   0
vdd#branch                        -1.25354e-11

 Reference value :  6.59728e-08
No. of Data Rows : 60044

  Measurements for Transient Analysis

tphl                =  1.80057e-10 targ=  2.35100e-09 trig=  2.17095e-09
tplh                =  2.65212e-10 targ=  2.27781e-08 trig=  2.25128e-08
i_vdd_avg           =  -4.02393e-06 from=  5.00000e-09 to=  1.10001e-07
power_avg_uw        =  7.87290e+00


Total analysis time (seconds) = 0.296022

Total elapsed time (seconds) = 0.382 

Total DRAM available = 16384.000 MB.
DRAM currently available =  151.031 MB.
Maximum ngspice program size =   13.641 MB.
Current ngspice program size =   13.641 MB.

