
Note: No compatibility mode selected!


Circuit: XOR2 seed characterization sample 4114008

Doing analysis at TEMP = -2.047460 and TNOM = 27.000000

Using SPARSE 1.3 as Direct Linear Solver

Initial Transient Solution
--------------------------

Node                                   Voltage
----                                   -------
vdd                                    1.71197
in                                           0
b                                      1.71197
abar                                   1.71197
bbar                               4.81071e-09
out                                    1.71197
vb#branch                                    0
vin#branch                         1.72271e-12
vdd#branch                        -1.03332e-11

 Reference value :  2.60439e-08
 Reference value :  5.95434e-08
 Reference value :  9.61114e-08
No. of Data Rows : 60044

  Measurements for Transient Analysis

tphl                =  3.08603e-10 targ=  2.37282e-09 trig=  2.06421e-09
tplh                =  4.95848e-10 targ=  2.26885e-08 trig=  2.21926e-08
i_vdd_avg           =  -1.27560e-06 from=  5.00000e-09 to=  1.10002e-07
power_avg_uw        =  2.18379e+00


Total analysis time (seconds) = 0.819947

Total elapsed time (seconds) = 0.893 

Total DRAM available = 16384.000 MB.
DRAM currently available =  182.734 MB.
Maximum ngspice program size =   12.562 MB.
Current ngspice program size =   11.938 MB.

