
Note: No compatibility mode selected!


Circuit: NAND2 seed characterization sample 4114046

Doing analysis at TEMP = 71.244300 and TNOM = 27.000000

Using SPARSE 1.3 as Direct Linear Solver

Initial Transient Solution
--------------------------

Node                                   Voltage
----                                   -------
vdd                                    1.79478
in                                           0
out                                    1.79478
nmid                                 0.0438349
vin#branch                                   0
vdd#branch                         -2.3482e-12

 Reference value :  4.51369e-08
 Reference value :  1.05497e-07
No. of Data Rows : 60044

  Measurements for Transient Analysis

tphl                =  2.01918e-10 targ=  2.42787e-09 trig=  2.22595e-09
tplh                =  1.33890e-10 targ=  2.28117e-08 trig=  2.26778e-08
i_vdd_avg           =  -1.51278e-06 from=  5.00000e-09 to=  1.10001e-07
power_avg_uw        =  2.71511e+00


Total analysis time (seconds) = 0.480339

Total elapsed time (seconds) = 0.553 

Total DRAM available = 16384.000 MB.
DRAM currently available =  160.953 MB.
Maximum ngspice program size =   12.562 MB.
Current ngspice program size =   11.719 MB.

