
Note: No compatibility mode selected!


Circuit: XOR2 seed characterization sample 4114036

Doing analysis at TEMP = 78.090500 and TNOM = 27.000000

Using SPARSE 1.3 as Direct Linear Solver

Initial Transient Solution
--------------------------

Node                                   Voltage
----                                   -------
vdd                                    1.84538
in                                           0
b                                      1.84538
abar                                   1.84538
bbar                               1.35927e-09
out                                    1.84538
vb#branch                                    0
vin#branch                         6.43049e-12
vdd#branch                        -1.92964e-11

 Reference value :  2.60011e-08
 Reference value :  6.06850e-08
 Reference value :  9.76050e-08
No. of Data Rows : 60044

  Measurements for Transient Analysis

tphl                =  4.23419e-10 targ=  2.62144e-09 trig=  2.19802e-09
tplh                =  4.92659e-10 targ=  2.30867e-08 trig=  2.25941e-08
i_vdd_avg           =  -8.26259e-06 from=  5.00000e-09 to=  1.10001e-07
power_avg_uw        =  1.52476e+01


Total analysis time (seconds) = 0.807371

Total elapsed time (seconds) = 0.881 

Total DRAM available = 16384.000 MB.
DRAM currently available =  147.406 MB.
Maximum ngspice program size =   12.578 MB.
Current ngspice program size =   11.750 MB.

