
Note: No compatibility mode selected!


Circuit: XOR2 seed characterization sample 4114048

Doing analysis at TEMP = 70.172400 and TNOM = 27.000000

Using SPARSE 1.3 as Direct Linear Solver

Initial Transient Solution
--------------------------

Node                                   Voltage
----                                   -------
vdd                                    1.89274
in                                           0
b                                      1.89274
abar                                   1.89274
bbar                               2.23181e-09
out                                    1.89274
vb#branch                                    0
vin#branch                         3.38066e-12
vdd#branch                        -1.40362e-11

 Reference value :  2.52149e-08
 Reference value :  5.99550e-08
 Reference value :  9.64110e-08
No. of Data Rows : 60044

  Measurements for Transient Analysis

tphl                =  3.02425e-10 targ=  2.41840e-09 trig=  2.11598e-09
tplh                =  3.39366e-10 targ=  2.26873e-08 trig=  2.23479e-08
i_vdd_avg           =  -3.65611e-06 from=  5.00000e-09 to=  1.10001e-07
power_avg_uw        =  6.92006e+00


Total analysis time (seconds) = 0.812986

Total elapsed time (seconds) = 0.890 

Total DRAM available = 16384.000 MB.
DRAM currently available =  183.875 MB.
Maximum ngspice program size =   12.578 MB.
Current ngspice program size =   11.594 MB.

