
Note: No compatibility mode selected!


Circuit: XOR2 seed characterization sample 4114012

Doing analysis at TEMP = 28.326600 and TNOM = 27.000000

Using SPARSE 1.3 as Direct Linear Solver

Initial Transient Solution
--------------------------

Node                                   Voltage
----                                   -------
vdd                                    1.62113
in                                           0
b                                      1.62113
abar                                   1.62113
bbar                               1.01945e-09
out                                    1.62113
vb#branch                                    0
vin#branch                         1.72873e-12
vdd#branch                        -9.96079e-12

 Reference value :  2.63683e-08
 Reference value :  6.12927e-08
 Reference value :  9.85927e-08
No. of Data Rows : 60044

  Measurements for Transient Analysis

tphl                =  3.53743e-10 targ=  2.45957e-09 trig=  2.10583e-09
tplh                =  5.06120e-10 targ=  2.28236e-08 trig=  2.23175e-08
i_vdd_avg           =  -5.80533e-06 from=  5.00000e-09 to=  1.10000e-07
power_avg_uw        =  9.41120e+00


Total analysis time (seconds) = 0.799007

Total elapsed time (seconds) = 0.872 

Total DRAM available = 16384.000 MB.
DRAM currently available =  184.094 MB.
Maximum ngspice program size =   13.344 MB.
Current ngspice program size =   13.344 MB.

