
Note: No compatibility mode selected!


Circuit: NAND2 seed characterization sample 4114042

Doing analysis at TEMP = 59.149400 and TNOM = 27.000000

Using SPARSE 1.3 as Direct Linear Solver

Initial Transient Solution
--------------------------

Node                                   Voltage
----                                   -------
vdd                                    1.88226
in                                           0
out                                    1.88226
nmid                                 0.0215882
vin#branch                                   0
vdd#branch                        -1.96165e-12

 Reference value :  4.59195e-08
 Reference value :  1.06326e-07
No. of Data Rows : 60044

  Measurements for Transient Analysis

tphl                =  4.60593e-10 targ=  2.55482e-09 trig=  2.09423e-09
tplh                =  1.60947e-10 targ=  2.24436e-08 trig=  2.22827e-08
i_vdd_avg           =  -1.52597e-06 from=  5.00000e-09 to=  1.10002e-07
power_avg_uw        =  2.87228e+00


Total analysis time (seconds) = 0.477177

Total elapsed time (seconds) = 0.549 

Total DRAM available = 16384.000 MB.
DRAM currently available =  164.781 MB.
Maximum ngspice program size =   12.562 MB.
Current ngspice program size =   11.875 MB.

