
Note: No compatibility mode selected!


Circuit: XOR2 seed characterization sample 4114020

Doing analysis at TEMP = 13.079200 and TNOM = 27.000000

Using SPARSE 1.3 as Direct Linear Solver

Initial Transient Solution
--------------------------

Node                                   Voltage
----                                   -------
vdd                                    1.74379
in                                           0
b                                      1.74379
abar                                   1.74379
bbar                               1.31166e-09
out                                    1.74379
vb#branch                                    0
vin#branch                         1.77238e-12
vdd#branch                        -1.05557e-11

 Reference value :  2.64178e-08
 Reference value :  6.08717e-08
 Reference value :  9.74154e-08
No. of Data Rows : 60049

  Measurements for Transient Analysis

tphl                =  1.89445e-10 targ=  2.20315e-09 trig=  2.01371e-09
tplh                =  2.07292e-10 targ=  2.22484e-08 trig=  2.20411e-08
i_vdd_avg           =  -3.07500e-06 from=  5.00000e-09 to=  1.10002e-07
power_avg_uw        =  5.36215e+00


Total analysis time (seconds) = 0.811247

Total elapsed time (seconds) = 0.882 

Total DRAM available = 16384.000 MB.
DRAM currently available =  193.047 MB.
Maximum ngspice program size =   12.859 MB.
Current ngspice program size =   12.859 MB.

