
Note: No compatibility mode selected!


Circuit: XOR2 seed characterization sample 4304028

Doing analysis at TEMP = 37.892900 and TNOM = 27.000000

Using SPARSE 1.3 as Direct Linear Solver

Initial Transient Solution
--------------------------

Node                                   Voltage
----                                   -------
vdd                                    1.74289
in                                           0
b                                      1.74289
abar                                   1.74289
bbar                               3.06763e-09
out                                    1.74289
vb#branch                                    0
vin#branch                          2.4836e-11
vdd#branch                        -5.12792e-11

 Reference value :  2.68062e-08
 Reference value :  6.19076e-08
 Reference value :  9.90016e-08
No. of Data Rows : 60041

  Measurements for Transient Analysis

tphl                =  2.05167e-10 targ=  2.30545e-09 trig=  2.10029e-09
tplh                =  1.97432e-10 targ=  2.24983e-08 trig=  2.23009e-08
i_vdd_avg           =  -3.06881e-06 from=  5.00000e-09 to=  1.10000e-07
power_avg_uw        =  5.34860e+00


Total analysis time (seconds) = 0.800163

Total elapsed time (seconds) = 0.871 

Total DRAM available = 16384.000 MB.
DRAM currently available =  158.391 MB.
Maximum ngspice program size =   12.578 MB.
Current ngspice program size =   12.000 MB.

