
Note: No compatibility mode selected!


Circuit: NOR2 seed characterization sample 4304011

Doing analysis at TEMP = 24.448800 and TNOM = 27.000000

Using SPARSE 1.3 as Direct Linear Solver

Initial Transient Solution
--------------------------

Node                                   Voltage
----                                   -------
vdd                                    1.65156
in                                           0
out                                    1.65156
pmid                                   1.65156
vin#branch                                   0
vdd#branch                        -1.58654e-11

 Reference value :  4.57280e-08
 Reference value :  1.06299e-07
No. of Data Rows : 60047

  Measurements for Transient Analysis

tphl                =  1.47235e-10 targ=  2.23176e-09 trig=  2.08452e-09
tplh                =  5.09169e-10 targ=  2.27627e-08 trig=  2.22536e-08
i_vdd_avg           =  -5.46480e-06 from=  5.00000e-09 to=  1.10001e-07
power_avg_uw        =  9.02545e+00


Total analysis time (seconds) = 0.478153

Total elapsed time (seconds) = 0.550 

Total DRAM available = 16384.000 MB.
DRAM currently available =  171.016 MB.
Maximum ngspice program size =   12.953 MB.
Current ngspice program size =   12.250 MB.

