
Note: No compatibility mode selected!


Circuit: XOR2 seed characterization sample 4304044

Doing analysis at TEMP = 52.174500 and TNOM = 27.000000

Using SPARSE 1.3 as Direct Linear Solver

Initial Transient Solution
--------------------------

Node                                   Voltage
----                                   -------
vdd                                    1.77379
in                                           0
b                                      1.77379
abar                                   1.77379
bbar                               3.60046e-09
out                                    1.77379
vb#branch                                    0
vin#branch                          1.3816e-10
vdd#branch                        -2.53983e-10

 Reference value :  2.60239e-08
 Reference value :  6.08374e-08
 Reference value :  9.78634e-08
No. of Data Rows : 60044

  Measurements for Transient Analysis

tphl                =  2.00092e-10 targ=  2.41731e-09 trig=  2.21721e-09
tplh                =  2.50164e-10 targ=  2.29018e-08 trig=  2.26516e-08
i_vdd_avg           =  -4.90351e-06 from=  5.00000e-09 to=  1.10002e-07
power_avg_uw        =  8.69780e+00


Total analysis time (seconds) = 0.801795

Total elapsed time (seconds) = 0.875 

Total DRAM available = 16384.000 MB.
DRAM currently available =  171.672 MB.
Maximum ngspice program size =   13.000 MB.
Current ngspice program size =   13.000 MB.

