
Note: No compatibility mode selected!


Circuit: INV seed characterization sample 4304001

Doing analysis at TEMP = 87.713900 and TNOM = 27.000000

Using SPARSE 1.3 as Direct Linear Solver

Initial Transient Solution
--------------------------

Node                                   Voltage
----                                   -------
vdd                                    1.66999
in                                           0
out                                    1.66999
vin#branch                                   0
vdd#branch                        -6.08787e-10

 Reference value :  7.48876e-08
No. of Data Rows : 60047

  Measurements for Transient Analysis

tphl                =  1.82067e-10 targ=  2.42673e-09 trig=  2.24466e-09
tplh                =  1.91109e-10 targ=  2.29251e-08 trig=  2.27340e-08
i_vdd_avg           =  -4.09649e-06 from=  5.00000e-09 to=  1.10002e-07
power_avg_uw        =  6.84110e+00


Total analysis time (seconds) = 0.286415

Total elapsed time (seconds) = 0.354 

Total DRAM available = 16384.000 MB.
DRAM currently available =  163.406 MB.
Maximum ngspice program size =   12.562 MB.
Current ngspice program size =   11.891 MB.

