
Note: No compatibility mode selected!


Circuit: INV seed characterization sample 4304017

Doing analysis at TEMP = -6.293700 and TNOM = 27.000000

Using SPARSE 1.3 as Direct Linear Solver

Initial Transient Solution
--------------------------

Node                                   Voltage
----                                   -------
vdd                                    1.87414
in                                           0
out                                    1.87414
vin#branch                                   0
vdd#branch                        -2.69915e-12

 Reference value :  7.31942e-08
No. of Data Rows : 60041

  Measurements for Transient Analysis

tphl                =  1.59481e-10 targ=  2.23179e-09 trig=  2.07231e-09
tplh                =  1.47656e-10 targ=  2.23646e-08 trig=  2.22169e-08
i_vdd_avg           =  -5.11987e-06 from=  5.00000e-09 to=  1.10000e-07
power_avg_uw        =  9.59535e+00


Total analysis time (seconds) = 0.293453

Total elapsed time (seconds) = 0.365 

Total DRAM available = 16384.000 MB.
DRAM currently available =  155.250 MB.
Maximum ngspice program size =   12.797 MB.
Current ngspice program size =   12.016 MB.

