
Note: No compatibility mode selected!


Circuit: NOR2 seed characterization sample 4304007

Doing analysis at TEMP = 86.044200 and TNOM = 27.000000

Using SPARSE 1.3 as Direct Linear Solver

Initial Transient Solution
--------------------------

Node                                   Voltage
----                                   -------
vdd                                    1.92803
in                                           0
out                                    1.92803
pmid                                   1.92803
vin#branch                                   0
vdd#branch                        -1.22717e-09

 Reference value :  4.71974e-08
 Reference value :  1.08474e-07
No. of Data Rows : 60044

  Measurements for Transient Analysis

tphl                =  3.84637e-11 targ=  2.11169e-09 trig=  2.07322e-09
tplh                =  1.11196e-10 targ=  2.23309e-08 trig=  2.22197e-08
i_vdd_avg           =  -1.93933e-06 from=  5.00000e-09 to=  1.10002e-07
power_avg_uw        =  3.73909e+00


Total analysis time (seconds) = 0.472502

Total elapsed time (seconds) = 0.544 

Total DRAM available = 16384.000 MB.
DRAM currently available =  171.422 MB.
Maximum ngspice program size =   13.422 MB.
Current ngspice program size =   11.969 MB.

