
Note: No compatibility mode selected!


Circuit: NOR2 seed characterization sample 4304039

Doing analysis at TEMP = -3.372680 and TNOM = 27.000000

Using SPARSE 1.3 as Direct Linear Solver

Initial Transient Solution
--------------------------

Node                                   Voltage
----                                   -------
vdd                                    1.90723
in                                           0
out                                    1.90723
pmid                                   1.90723
vin#branch                                   0
vdd#branch                        -4.71878e-12

 Reference value :  4.61721e-08
 Reference value :  1.06175e-07
No. of Data Rows : 60047

  Measurements for Transient Analysis

tphl                =  1.22235e-10 targ=  2.27678e-09 trig=  2.15454e-09
tplh                =  3.47009e-10 targ=  2.28106e-08 trig=  2.24636e-08
i_vdd_avg           =  -2.59726e-06 from=  5.00000e-09 to=  1.10001e-07
power_avg_uw        =  4.95357e+00


Total analysis time (seconds) = 0.480123

Total elapsed time (seconds) = 0.551 

Total DRAM available = 16384.000 MB.
DRAM currently available =  156.844 MB.
Maximum ngspice program size =   12.562 MB.
Current ngspice program size =   11.906 MB.

