
Note: No compatibility mode selected!


Circuit: NAND2 seed characterization sample 4304018

Doing analysis at TEMP = 33.377800 and TNOM = 27.000000

Using SPARSE 1.3 as Direct Linear Solver

Initial Transient Solution
--------------------------

Node                                   Voltage
----                                   -------
vdd                                    1.75358
in                                           0
out                                    1.75358
nmid                                 0.0530046
vin#branch                                   0
vdd#branch                        -4.86483e-12

 Reference value :  4.58435e-08
 Reference value :  1.06362e-07
No. of Data Rows : 60041

  Measurements for Transient Analysis

tphl                =  2.57683e-10 targ=  2.29595e-09 trig=  2.03826e-09
tplh                =  1.30310e-10 targ=  2.22451e-08 trig=  2.21148e-08
i_vdd_avg           =  -5.52013e-06 from=  5.00000e-09 to=  1.10000e-07
power_avg_uw        =  9.67999e+00


Total analysis time (seconds) = 0.47567

Total elapsed time (seconds) = 0.549 

Total DRAM available = 16384.000 MB.
DRAM currently available =  155.250 MB.
Maximum ngspice program size =   12.562 MB.
Current ngspice program size =   11.938 MB.

