
Note: No compatibility mode selected!


Circuit: NAND2 seed characterization sample 4304006

Doing analysis at TEMP = 17.276200 and TNOM = 27.000000

Using SPARSE 1.3 as Direct Linear Solver

Initial Transient Solution
--------------------------

Node                                   Voltage
----                                   -------
vdd                                    1.90819
in                                           0
out                                    1.90819
nmid                                  0.054255
vin#branch                                   0
vdd#branch                        -3.21785e-12

 Reference value :  4.77353e-08
 Reference value :  1.09424e-07
No. of Data Rows : 60044

  Measurements for Transient Analysis

tphl                =  9.76194e-11 targ=  2.24375e-09 trig=  2.14613e-09
tplh                =  5.86757e-11 targ=  2.24971e-08 trig=  2.24384e-08
i_vdd_avg           =  -1.53488e-06 from=  5.00000e-09 to=  1.10002e-07
power_avg_uw        =  2.92885e+00


Total analysis time (seconds) = 0.469197

Total elapsed time (seconds) = 0.540 

Total DRAM available = 16384.000 MB.
DRAM currently available =  171.422 MB.
Maximum ngspice program size =   12.562 MB.
Current ngspice program size =   11.625 MB.

