
Note: No compatibility mode selected!


Circuit: NAND2 seed characterization sample 4304026

Doing analysis at TEMP = 92.324200 and TNOM = 27.000000

Using SPARSE 1.3 as Direct Linear Solver

Initial Transient Solution
--------------------------

Node                                   Voltage
----                                   -------
vdd                                    1.82168
in                                           0
out                                    1.82168
nmid                                 0.0585261
vin#branch                                   0
vdd#branch                        -3.03589e-11

 Reference value :  4.77936e-08
 Reference value :  1.09396e-07
No. of Data Rows : 60041

  Measurements for Transient Analysis

tphl                =  1.47105e-10 targ=  2.30639e-09 trig=  2.15928e-09
tplh                =  6.29184e-11 targ=  2.25408e-08 trig=  2.24778e-08
i_vdd_avg           =  -5.79511e-07 from=  5.00000e-09 to=  1.10000e-07
power_avg_uw        =  1.05568e+00


Total analysis time (seconds) = 0.468576

Total elapsed time (seconds) = 0.537 

Total DRAM available = 16384.000 MB.
DRAM currently available =  160.406 MB.
Maximum ngspice program size =   12.594 MB.
Current ngspice program size =   12.312 MB.

