
Note: No compatibility mode selected!


Circuit: XOR2 seed characterization sample 4304004

Doing analysis at TEMP = 90.229700 and TNOM = 27.000000

Using SPARSE 1.3 as Direct Linear Solver

Initial Transient Solution
--------------------------

Node                                   Voltage
----                                   -------
vdd                                    1.95669
in                                           0
b                                      1.95669
abar                                   1.95669
bbar                               4.83295e-08
out                                    1.95669
vb#branch                                    0
vin#branch                         2.67667e-10
vdd#branch                        -4.77335e-10

 Reference value :  2.72145e-08
 Reference value :  6.32385e-08
 Reference value :  1.01159e-07
No. of Data Rows : 60044

  Measurements for Transient Analysis

tphl                =  5.61495e-10 targ=  2.80136e-09 trig=  2.23987e-09
tplh                =  7.34818e-10 targ=  2.34544e-08 trig=  2.27196e-08
i_vdd_avg           =  -6.04865e-06 from=  5.00000e-09 to=  1.10000e-07
power_avg_uw        =  1.18353e+01


Total analysis time (seconds) = 0.783702

Total elapsed time (seconds) = 0.854 

Total DRAM available = 16384.000 MB.
DRAM currently available =  160.922 MB.
Maximum ngspice program size =   12.578 MB.
Current ngspice program size =   11.625 MB.

