
Note: No compatibility mode selected!


Circuit: INV seed characterization sample 4304025

Doing analysis at TEMP = -14.350600 and TNOM = 27.000000

Using SPARSE 1.3 as Direct Linear Solver

Initial Transient Solution
--------------------------

Node                                   Voltage
----                                   -------
vdd                                    1.96326
in                                           0
out                                    1.96326
vin#branch                                   0
vdd#branch                        -2.77391e-12

 Reference value :  7.42357e-08
No. of Data Rows : 60047

  Measurements for Transient Analysis

tphl                =  6.71116e-11 targ=  2.10879e-09 trig=  2.04168e-09
tplh                =  7.21854e-11 targ=  2.21972e-08 trig=  2.21250e-08
i_vdd_avg           =  -3.64524e-06 from=  5.00000e-09 to=  1.10002e-07
power_avg_uw        =  7.15656e+00


Total analysis time (seconds) = 0.289046

Total elapsed time (seconds) = 0.359 

Total DRAM available = 16384.000 MB.
DRAM currently available =  160.406 MB.
Maximum ngspice program size =   12.562 MB.
Current ngspice program size =   11.969 MB.

