
Note: Compatibility modes selected: hs a


Circuit: SKY130 library cell nand2_4 A_to_Y__B=1

option SCALE: Scale is set to 1e-06 for instance and model parameters
Doing analysis at TEMP = 111.971180 and TNOM = 27.000000

Using KLU as Direct Linear Solver
 Reference value :  1.63364e-08
 Reference value :  6.74603e-08
 Reference value :  1.15028e-07
 Reference value :  1.66268e-07
 Reference value :  2.15710e-07
 Reference value :  2.64970e-07
 Reference value :  3.14053e-07
No. of Data Rows : 68034

  Measurements for Transient Analysis

tphl                =  -9.24988e-11 targ=  2.73189e-08 trig=  2.74114e-08
tplh                =  4.68949e-10 targ=  1.04703e-07 trig=  1.04234e-07
i_vdd_avg           =  -1.50480e-06 from=  1.00000e-08 to=  3.30003e-07
power_avg_uw        =  2.93431e+00


Total analysis time (seconds) = 1.88963

Total elapsed time (seconds) = 2.085 

Total DRAM available = 16384.000 MB.
DRAM currently available =  178.453 MB.
Maximum ngspice program size =   23.984 MB.
Current ngspice program size =   22.219 MB.

