
Note: Compatibility modes selected: hs a


Circuit: SKY130 library cell mux2_1 A0_to_X__A1=0,S=0

option SCALE: Scale is set to 1e-06 for instance and model parameters
Doing analysis at TEMP = 16.224491 and TNOM = 27.000000

Using KLU as Direct Linear Solver
 Reference value :  1.95164e-08
 Reference value :  7.79283e-08
 Reference value :  1.37044e-07
 Reference value :  1.96503e-07
 Reference value :  2.55868e-07
 Reference value :  3.07194e-07
No. of Data Rows : 68032

  Measurements for Transient Analysis

tplh                =  5.79482e-10 targ=  2.60424e-08 trig=  2.54629e-08
tphl                =  9.40875e-10 targ=  9.93295e-08 trig=  9.83887e-08
i_vdd_avg           =  -5.79466e-07 from=  1.00000e-08 to=  3.30004e-07
power_avg_uw        =  1.01052e+00


Total analysis time (seconds) = 1.55673

Total elapsed time (seconds) = 1.734 

Total DRAM available = 16384.000 MB.
DRAM currently available =  150.266 MB.
Maximum ngspice program size =   29.750 MB.
Current ngspice program size =   29.750 MB.

