
Note: Compatibility modes selected: hs a


Circuit: SKY130 library cell nor2_4 A_to_Y__B=0

option SCALE: Scale is set to 1e-06 for instance and model parameters
Doing analysis at TEMP = 50.920418 and TNOM = 27.000000

Using KLU as Direct Linear Solver
 Reference value :  2.07614e-08
 Reference value :  6.39206e-08
 Reference value :  1.10844e-07
 Reference value :  1.60124e-07
 Reference value :  2.06891e-07
 Reference value :  2.46431e-07
 Reference value :  2.93049e-07
 Reference value :  3.38214e-07
No. of Data Rows : 68034

  Measurements for Transient Analysis

tphl                =  1.48466e-10 targ=  2.47325e-08 trig=  2.45841e-08
tplh                =  3.78905e-10 targ=  9.61311e-08 trig=  9.57522e-08
i_vdd_avg           =  -2.97925e-07 from=  1.00000e-08 to=  3.30004e-07
power_avg_uw        =  4.89618e-01


Total analysis time (seconds) = 1.95179

Total elapsed time (seconds) = 2.128 

Total DRAM available = 16384.000 MB.
DRAM currently available =  218.797 MB.
Maximum ngspice program size =   25.016 MB.
Current ngspice program size =   25.016 MB.

