
Note: Compatibility modes selected: hs a


Circuit: SKY130 library cell nor2_1 A_to_Y__B=0

option SCALE: Scale is set to 1e-06 for instance and model parameters
Doing analysis at TEMP = -37.679083 and TNOM = 27.000000

Using KLU as Direct Linear Solver
 Reference value :  6.01324e-08
 Reference value :  2.19312e-07
No. of Data Rows : 68032

  Measurements for Transient Analysis

tphl                =  6.97891e-10 targ=  2.52529e-08 trig=  2.45550e-08
tplh                =  2.71790e-09 targ=  9.83828e-08 trig=  9.56649e-08
i_vdd_avg           =  -2.28226e-06 from=  1.00000e-08 to=  3.30002e-07
power_avg_uw        =  4.38725e+00


Total analysis time (seconds) = 0.597659

Total elapsed time (seconds) = 0.737 

Total DRAM available = 16384.000 MB.
DRAM currently available =  738.219 MB.
Maximum ngspice program size =   26.656 MB.
Current ngspice program size =   26.656 MB.

