
Note: Compatibility modes selected: hs a


Circuit: SKY130 library cell nand2_4 A_to_Y__B=1

option SCALE: Scale is set to 1e-06 for instance and model parameters
Doing analysis at TEMP = -22.545702 and TNOM = 27.000000

Using KLU as Direct Linear Solver
 Reference value :  1.67464e-08
 Reference value :  5.70054e-08
 Reference value :  1.06605e-07
 Reference value :  1.55433e-07
 Reference value :  1.97670e-07
 Reference value :  2.43925e-07
 Reference value :  2.87098e-07
 Reference value :  3.33458e-07
No. of Data Rows : 68034

  Measurements for Transient Analysis

tphl                =  -2.61722e-11 targ=  2.91353e-08 trig=  2.91614e-08
tplh                =  1.55079e-09 targ=  1.11035e-07 trig=  1.09484e-07
i_vdd_avg           =  -5.69988e-07 from=  1.00000e-08 to=  3.30003e-07
power_avg_uw        =  1.02789e+00


Total analysis time (seconds) = 2.09476

Total elapsed time (seconds) = 2.237 

Total DRAM available = 16384.000 MB.
DRAM currently available =  256.734 MB.
Maximum ngspice program size =   24.438 MB.
Current ngspice program size =   24.438 MB.

