
Note: Compatibility modes selected: hs a


Circuit: SKY130 library cell inv_1 A_to_Y

option SCALE: Scale is set to 1e-06 for instance and model parameters
Doing analysis at TEMP = 68.503942 and TNOM = 27.000000

Using KLU as Direct Linear Solver
 Reference value :  8.85767e-08
 Reference value :  3.39876e-07
No. of Data Rows : 68032

  Measurements for Transient Analysis

tphl                =  5.86175e-10 targ=  2.84108e-08 trig=  2.78246e-08
tplh                =  1.58813e-09 targ=  1.07062e-07 trig=  1.05474e-07
i_vdd_avg           =  -2.73589e-07 from=  1.00000e-08 to=  3.30001e-07
power_avg_uw        =  4.43936e-01


Total analysis time (seconds) = 0.35312

Total elapsed time (seconds) = 0.502 

Total DRAM available = 16384.000 MB.
DRAM currently available =  225.844 MB.
Maximum ngspice program size =   25.609 MB.
Current ngspice program size =   25.609 MB.

