
Note: Compatibility modes selected: hs a


Circuit: SKY130 library cell oai21_1 A1_to_Y__A2=0,B1=1

option SCALE: Scale is set to 1e-06 for instance and model parameters
Doing analysis at TEMP = 85.339835 and TNOM = 27.000000

Using KLU as Direct Linear Solver
 Reference value :  4.56566e-08
 Reference value :  1.51566e-07
 Reference value :  2.57197e-07
No. of Data Rows : 68032

  Measurements for Transient Analysis

tphl                =  1.09686e-09 targ=  2.65514e-08 trig=  2.54545e-08
tplh                =  2.14681e-09 targ=  1.00510e-07 trig=  9.83636e-08
i_vdd_avg           =  -1.23483e-06 from=  1.00000e-08 to=  3.30001e-07
power_avg_uw        =  2.15810e+00


Total analysis time (seconds) = 0.815592

Total elapsed time (seconds) = 0.957 

Total DRAM available = 16384.000 MB.
DRAM currently available =  115.219 MB.
Maximum ngspice program size =   25.422 MB.
Current ngspice program size =   25.422 MB.

