
Note: Compatibility modes selected: hs a


Circuit: SKY130 library cell mux2_1 A0_to_X__A1=0,S=0

option SCALE: Scale is set to 1e-06 for instance and model parameters
Doing analysis at TEMP = 89.294143 and TNOM = 27.000000

Using KLU as Direct Linear Solver
 Reference value :  2.20264e-08
 Reference value :  7.33817e-08
 Reference value :  1.30286e-07
 Reference value :  1.87488e-07
 Reference value :  2.42452e-07
 Reference value :  3.01071e-07
No. of Data Rows : 68032

  Measurements for Transient Analysis

tplh                =  8.54337e-10 targ=  2.76764e-08 trig=  2.68221e-08
tphl                =  1.38792e-09 targ=  1.03854e-07 trig=  1.02466e-07
i_vdd_avg           =  -2.01960e-06 from=  1.00000e-08 to=  3.30001e-07
power_avg_uw        =  3.93518e+00


Total analysis time (seconds) = 1.57388

Total elapsed time (seconds) = 1.731 

Total DRAM available = 16384.000 MB.
DRAM currently available =  123.875 MB.
Maximum ngspice program size =   28.812 MB.
Current ngspice program size =   28.812 MB.

