
Note: Compatibility modes selected: hs a


Circuit: SKY130 library cell aoi21_4 A1_to_Y__A2=1,B1=0

option SCALE: Scale is set to 1e-06 for instance and model parameters
Doing analysis at TEMP = 103.714210 and TNOM = 27.000000

Using KLU as Direct Linear Solver
 Reference value :  1.14814e-08
 Reference value :  4.30801e-08
 Reference value :  7.37601e-08
 Reference value :  1.04203e-07
 Reference value :  1.34223e-07
 Reference value :  1.62398e-07
 Reference value :  1.91440e-07
 Reference value :  2.22010e-07
 Reference value :  2.52055e-07
 Reference value :  2.81413e-07
 Reference value :  3.07438e-07
 Reference value :  3.37123e-07
No. of Data Rows : 68034

  Measurements for Transient Analysis

tphl                =  6.17049e-10 targ=  2.67209e-08 trig=  2.61038e-08
tplh                =  1.16697e-09 targ=  1.01478e-07 trig=  1.00311e-07
i_vdd_avg           =  -1.88313e-06 from=  1.00000e-08 to=  3.30003e-07
power_avg_uw        =  3.43157e+00


Total analysis time (seconds) = 2.99828

Total elapsed time (seconds) = 3.163 

Total DRAM available = 16384.000 MB.
DRAM currently available =  150.266 MB.
Maximum ngspice program size =   29.578 MB.
Current ngspice program size =   29.578 MB.

