
Note: Compatibility modes selected: hs a


Circuit: SKY130 library cell mux2_4 A0_to_X__A1=0,S=0

option SCALE: Scale is set to 1e-06 for instance and model parameters
Doing analysis at TEMP = 45.270211 and TNOM = 27.000000

Using KLU as Direct Linear Solver
 Reference value :  1.79014e-08
 Reference value :  5.83283e-08
 Reference value :  9.66333e-08
 Reference value :  1.36999e-07
 Reference value :  1.76054e-07
 Reference value :  2.18158e-07
 Reference value :  2.63123e-07
 Reference value :  2.99794e-07
 Reference value :  3.39569e-07
No. of Data Rows : 68032

  Measurements for Transient Analysis

tplh                =  3.32707e-10 targ=  2.99231e-08 trig=  2.95904e-08
tphl                =  1.72802e-09 targ=  1.12499e-07 trig=  1.10771e-07
i_vdd_avg           =  -2.05567e-06 from=  1.00000e-08 to=  3.30004e-07
power_avg_uw        =  3.85794e+00


Total analysis time (seconds) = 2.31704

Total elapsed time (seconds) = 2.459 

Total DRAM available = 16384.000 MB.
DRAM currently available =  256.734 MB.
Maximum ngspice program size =   25.172 MB.
Current ngspice program size =   25.172 MB.

