
Note: Compatibility modes selected: hs a


Circuit: SKY130 library cell nand3_1 A_to_Y__B=1,C=1

option SCALE: Scale is set to 1e-06 for instance and model parameters
Doing analysis at TEMP = -18.064935 and TNOM = 27.000000

Using KLU as Direct Linear Solver
 Reference value :  3.86050e-08
 Reference value :  1.47867e-07
 Reference value :  2.47675e-07
No. of Data Rows : 68030

  Measurements for Transient Analysis

tphl                =  9.27873e-10 targ=  2.63991e-08 trig=  2.54712e-08
tplh                =  1.40663e-09 targ=  9.98203e-08 trig=  9.84137e-08
i_vdd_avg           =  -7.25070e-07 from=  1.00000e-08 to=  3.30002e-07
power_avg_uw        =  1.27386e+00


Total analysis time (seconds) = 0.8825

Total elapsed time (seconds) = 1.046 

Total DRAM available = 16384.000 MB.
DRAM currently available =  233.484 MB.
Maximum ngspice program size =   25.719 MB.
Current ngspice program size =   25.719 MB.

