
Note: Compatibility modes selected: hs a


Circuit: SKY130 library cell nor2_4 A_to_Y__B=0

option SCALE: Scale is set to 1e-06 for instance and model parameters
Doing analysis at TEMP = 111.659790 and TNOM = 27.000000

Using KLU as Direct Linear Solver
 Reference value :  1.50364e-08
 Reference value :  5.54420e-08
 Reference value :  1.01707e-07
 Reference value :  1.50681e-07
 Reference value :  1.98432e-07
 Reference value :  2.50407e-07
 Reference value :  3.02691e-07
No. of Data Rows : 68032

  Measurements for Transient Analysis

tphl                =  3.40829e-10 targ=  2.75581e-08 trig=  2.72172e-08
tplh                =  1.23804e-09 targ=  1.04890e-07 trig=  1.03652e-07
i_vdd_avg           =  -2.10630e-06 from=  1.00000e-08 to=  3.30001e-07
power_avg_uw        =  3.99378e+00


Total analysis time (seconds) = 1.76381

Total elapsed time (seconds) = 1.921 

Total DRAM available = 16384.000 MB.
DRAM currently available =  188.906 MB.
Maximum ngspice program size =   25.531 MB.
Current ngspice program size =   25.531 MB.

