
Note: Compatibility modes selected: hs a


Circuit: SKY130 library cell nand3_1 A_to_Y__B=1,C=1

option SCALE: Scale is set to 1e-06 for instance and model parameters
Doing analysis at TEMP = 70.408657 and TNOM = 27.000000

Using KLU as Direct Linear Solver
 Reference value :  4.29813e-08
 Reference value :  1.48630e-07
 Reference value :  2.57601e-07
No. of Data Rows : 68032

  Measurements for Transient Analysis

tphl                =  2.47328e-09 targ=  3.11127e-08 trig=  2.86394e-08
tplh                =  3.19693e-09 targ=  1.11115e-07 trig=  1.07918e-07
i_vdd_avg           =  -2.48156e-06 from=  1.00000e-08 to=  3.30000e-07
power_avg_uw        =  4.88077e+00


Total analysis time (seconds) = 0.81862

Total elapsed time (seconds) = 0.973 

Total DRAM available = 16384.000 MB.
DRAM currently available =  159.266 MB.
Maximum ngspice program size =   25.656 MB.
Current ngspice program size =   25.656 MB.

