
Note: Compatibility modes selected: hs a


Circuit: SKY130 library cell nand2_4 A_to_Y__B=1

option SCALE: Scale is set to 1e-06 for instance and model parameters
Doing analysis at TEMP = 27.523227 and TNOM = 27.000000

Using KLU as Direct Linear Solver
 Reference value :  1.71064e-08
 Reference value :  6.28691e-08
 Reference value :  1.06751e-07
 Reference value :  1.54451e-07
 Reference value :  1.97684e-07
 Reference value :  2.47229e-07
 Reference value :  2.90576e-07
 Reference value :  3.37851e-07
No. of Data Rows : 68030

  Measurements for Transient Analysis

tphl                =  3.75911e-10 targ=  2.51217e-08 trig=  2.47458e-08
tplh                =  6.13719e-10 targ=  9.68511e-08 trig=  9.62374e-08
i_vdd_avg           =  -1.74278e-06 from=  1.00000e-08 to=  3.30001e-07
power_avg_uw        =  3.32584e+00


Total analysis time (seconds) = 1.99521

Total elapsed time (seconds) = 2.150 

Total DRAM available = 16384.000 MB.
DRAM currently available =  112.188 MB.
Maximum ngspice program size =   27.172 MB.
Current ngspice program size =   27.172 MB.

