
Note: Compatibility modes selected: hs a


Circuit: SKY130 library cell aoi21_1 A1_to_Y__A2=1,B1=0

option SCALE: Scale is set to 1e-06 for instance and model parameters
Doing analysis at TEMP = 60.457597 and TNOM = 27.000000

Using KLU as Direct Linear Solver
 Reference value :  3.72749e-08
 Reference value :  1.50392e-07
 Reference value :  2.68990e-07
No. of Data Rows : 68030

  Measurements for Transient Analysis

tphl                =  2.75748e-09 targ=  3.06637e-08 trig=  2.79062e-08
tplh                =  5.20141e-09 targ=  1.10920e-07 trig=  1.05719e-07
i_vdd_avg           =  -2.08144e-06 from=  1.00000e-08 to=  3.30002e-07
power_avg_uw        =  3.40942e+00


Total analysis time (seconds) = 0.762975

Total elapsed time (seconds) = 0.908 

Total DRAM available = 16384.000 MB.
DRAM currently available =  650.953 MB.
Maximum ngspice program size =   25.875 MB.
Current ngspice program size =   25.875 MB.

