
Note: Compatibility modes selected: hs a


Circuit: SKY130 library cell xor2_1 A_to_X__B=0

option SCALE: Scale is set to 1e-06 for instance and model parameters
Doing analysis at TEMP = 104.275860 and TNOM = 27.000000

Using KLU as Direct Linear Solver
 Reference value :  2.87975e-08
 Reference value :  1.01940e-07
 Reference value :  1.67358e-07
 Reference value :  2.40455e-07
 Reference value :  3.10228e-07
No. of Data Rows : 68034

  Measurements for Transient Analysis

tplh                =  6.70458e-10 targ=  3.01095e-08 trig=  2.94390e-08
tphl                =  1.22352e-09 targ=  1.11541e-07 trig=  1.10317e-07
i_vdd_avg           =  -7.02126e-07 from=  1.00000e-08 to=  3.30003e-07
power_avg_uw        =  1.17859e+00


Total analysis time (seconds) = 1.23226

Total elapsed time (seconds) = 1.388 

Total DRAM available = 16384.000 MB.
DRAM currently available =  218.797 MB.
Maximum ngspice program size =   27.375 MB.
Current ngspice program size =   27.375 MB.

