
Note: Compatibility modes selected: hs a


Circuit: SKY130 library cell xor2_4 A_to_X__B=0

option SCALE: Scale is set to 1e-06 for instance and model parameters
Doing analysis at TEMP = -30.688150 and TNOM = 27.000000

Using KLU as Direct Linear Solver
 Reference value :  7.90640e-09
 Reference value :  2.73475e-08
 Reference value :  4.55039e-08
 Reference value :  6.53339e-08
 Reference value :  8.31689e-08
 Reference value :  1.01079e-07
 Reference value :  1.18820e-07
 Reference value :  1.38195e-07
 Reference value :  1.57335e-07
 Reference value :  1.75550e-07
 Reference value :  1.93569e-07
 Reference value :  2.13134e-07
 Reference value :  2.32904e-07
 Reference value :  2.51589e-07
 Reference value :  2.69070e-07
 Reference value :  2.90305e-07
 Reference value :  3.08195e-07
 Reference value :  3.28590e-07
No. of Data Rows : 68030

  Measurements for Transient Analysis

tplh                =  1.02813e-09 targ=  2.86188e-08 trig=  2.75907e-08
tphl                =  1.58531e-09 targ=  1.06357e-07 trig=  1.04772e-07
i_vdd_avg           =  -2.21171e-06 from=  1.00000e-08 to=  3.30000e-07
power_avg_uw        =  3.70949e+00


Total analysis time (seconds) = 4.68042

Total elapsed time (seconds) = 4.831 

Total DRAM available = 16384.000 MB.
DRAM currently available =  673.547 MB.
Maximum ngspice program size =   26.312 MB.
Current ngspice program size =   26.312 MB.

