
Note: Compatibility modes selected: hs a


Circuit: SKY130 library cell mux2_4 A0_to_X__A1=0,S=0

option SCALE: Scale is set to 1e-06 for instance and model parameters
Doing analysis at TEMP = 80.317730 and TNOM = 27.000000

Using KLU as Direct Linear Solver
 Reference value :  1.47564e-08
 Reference value :  5.60035e-08
 Reference value :  9.21085e-08
 Reference value :  1.32790e-07
 Reference value :  1.72225e-07
 Reference value :  2.11489e-07
 Reference value :  2.51849e-07
 Reference value :  2.90975e-07
 Reference value :  3.29610e-07
No. of Data Rows : 68032

  Measurements for Transient Analysis

tplh                =  4.18638e-10 targ=  2.60016e-08 trig=  2.55830e-08
tphl                =  7.99477e-10 targ=  9.95485e-08 trig=  9.87490e-08
i_vdd_avg           =  -1.02581e-06 from=  1.00000e-08 to=  3.30005e-07
power_avg_uw        =  1.87106e+00


Total analysis time (seconds) = 2.31527

Total elapsed time (seconds) = 2.469 

Total DRAM available = 16384.000 MB.
DRAM currently available =  150.266 MB.
Maximum ngspice program size =   26.281 MB.
Current ngspice program size =   26.281 MB.

