
Note: Compatibility modes selected: hs a


Circuit: SKY130 library cell xor2_1 A_to_X__B=0

option SCALE: Scale is set to 1e-06 for instance and model parameters
Doing analysis at TEMP = 8.946388 and TNOM = 27.000000

Using KLU as Direct Linear Solver
 Reference value :  2.28114e-08
 Reference value :  9.50084e-08
 Reference value :  1.69589e-07
 Reference value :  2.47718e-07
 Reference value :  3.28384e-07
No. of Data Rows : 68032

  Measurements for Transient Analysis

tplh                =  2.81094e-09 targ=  2.94314e-08 trig=  2.66205e-08
tphl                =  1.37111e-09 targ=  1.03233e-07 trig=  1.01861e-07
i_vdd_avg           =  -2.25987e-06 from=  1.00000e-08 to=  3.30004e-07
power_avg_uw        =  4.03992e+00


Total analysis time (seconds) = 1.1368

Total elapsed time (seconds) = 1.305 

Total DRAM available = 16384.000 MB.
DRAM currently available =  188.906 MB.
Maximum ngspice program size =   26.578 MB.
Current ngspice program size =   26.578 MB.

