
Note: Compatibility modes selected: hs a


Circuit: SKY130 library cell aoi21_1 A1_to_Y__A2=1,B1=0

option SCALE: Scale is set to 1e-06 for instance and model parameters
Doing analysis at TEMP = 114.044170 and TNOM = 27.000000

Using KLU as Direct Linear Solver
 Reference value :  4.07470e-08
 Reference value :  1.51272e-07
 Reference value :  2.64782e-07
No. of Data Rows : 68032

  Measurements for Transient Analysis

tphl                =  1.35407e-09 targ=  3.07713e-08 trig=  2.94173e-08
tplh                =  2.65901e-09 targ=  1.12911e-07 trig=  1.10252e-07
i_vdd_avg           =  -1.24450e-06 from=  1.00000e-08 to=  3.30002e-07
power_avg_uw        =  2.35378e+00


Total analysis time (seconds) = 0.817964

Total elapsed time (seconds) = 0.970 

Total DRAM available = 16384.000 MB.
DRAM currently available =  218.797 MB.
Maximum ngspice program size =   24.828 MB.
Current ngspice program size =   24.828 MB.

