
Note: Compatibility modes selected: hs a


Circuit: SKY130 library cell mux2_1 A0_to_X__A1=0,S=0

option SCALE: Scale is set to 1e-06 for instance and model parameters
Doing analysis at TEMP = -26.329743 and TNOM = 27.000000

Using KLU as Direct Linear Solver
 Reference value :  2.05564e-08
 Reference value :  8.53097e-08
 Reference value :  1.45117e-07
 Reference value :  2.03230e-07
 Reference value :  2.63462e-07
 Reference value :  3.18572e-07
No. of Data Rows : 68030

  Measurements for Transient Analysis

tplh                =  1.20241e-09 targ=  2.54285e-08 trig=  2.42261e-08
tphl                =  7.07638e-10 targ=  9.53859e-08 trig=  9.46783e-08
i_vdd_avg           =  -1.28635e-06 from=  1.00000e-08 to=  3.30002e-07
power_avg_uw        =  2.13365e+00


Total analysis time (seconds) = 1.56798

Total elapsed time (seconds) = 1.783 

Total DRAM available = 16384.000 MB.
DRAM currently available =  145.031 MB.
Maximum ngspice program size =   27.953 MB.
Current ngspice program size =   27.266 MB.

