
Note: Compatibility modes selected: hs a


Circuit: SKY130 library cell oai21_1 A1_to_Y__A2=0,B1=1

option SCALE: Scale is set to 1e-06 for instance and model parameters
Doing analysis at TEMP = 98.209982 and TNOM = 27.000000

Using KLU as Direct Linear Solver
 Reference value :  4.08947e-08
 Reference value :  1.60527e-07
 Reference value :  2.65255e-07
No. of Data Rows : 68030

  Measurements for Transient Analysis

tphl                =  2.27985e-09 targ=  2.97634e-08 trig=  2.74836e-08
tplh                =  4.26126e-09 targ=  1.08712e-07 trig=  1.04451e-07
i_vdd_avg           =  -2.13132e-06 from=  1.00000e-08 to=  3.30002e-07
power_avg_uw        =  3.63140e+00


Total analysis time (seconds) = 0.776485

Total elapsed time (seconds) = 0.920 

Total DRAM available = 16384.000 MB.
DRAM currently available =  738.219 MB.
Maximum ngspice program size =   26.016 MB.
Current ngspice program size =   26.016 MB.

