
Note: Compatibility modes selected: hs a


Circuit: SKY130 library cell nor2_1 A_to_Y__B=0

option SCALE: Scale is set to 1e-06 for instance and model parameters
Doing analysis at TEMP = 114.670090 and TNOM = 27.000000

Using KLU as Direct Linear Solver
 Reference value :  5.37606e-08
 Reference value :  1.97176e-07
No. of Data Rows : 68034

  Measurements for Transient Analysis

tphl                =  4.30360e-10 targ=  3.03019e-08 trig=  2.98716e-08
tplh                =  1.72250e-09 targ=  1.13337e-07 trig=  1.11615e-07
i_vdd_avg           =  -3.56929e-07 from=  1.00000e-08 to=  3.30004e-07
power_avg_uw        =  5.98405e-01


Total analysis time (seconds) = 0.650219

Total elapsed time (seconds) = 0.792 

Total DRAM available = 16384.000 MB.
DRAM currently available =  145.031 MB.
Maximum ngspice program size =   26.266 MB.
Current ngspice program size =   26.266 MB.

