
Note: Compatibility modes selected: hs a


Circuit: SKY130 library cell inv_4 A_to_Y

option SCALE: Scale is set to 1e-06 for instance and model parameters
Doing analysis at TEMP = 103.299940 and TNOM = 27.000000

Using KLU as Direct Linear Solver
 Reference value :  2.82625e-08
 Reference value :  1.14071e-07
 Reference value :  2.02504e-07
 Reference value :  2.90796e-07
No. of Data Rows : 68030

  Measurements for Transient Analysis

tphl                =  -1.64557e-10 targ=  2.66489e-08 trig=  2.68134e-08
tplh                =  4.31754e-10 targ=  1.02872e-07 trig=  1.02440e-07
i_vdd_avg           =  -1.06397e-06 from=  1.00000e-08 to=  3.30001e-07
power_avg_uw        =  2.02273e+00


Total analysis time (seconds) = 1.03661

Total elapsed time (seconds) = 1.199 

Total DRAM available = 16384.000 MB.
DRAM currently available =  156.000 MB.
Maximum ngspice program size =   24.422 MB.
Current ngspice program size =   24.422 MB.

