
Note: Compatibility modes selected: hs a


Circuit: SKY130 library cell aoi21_4 A1_to_Y__A2=1,B1=0

option SCALE: Scale is set to 1e-06 for instance and model parameters
Doing analysis at TEMP = 23.105070 and TNOM = 27.000000

Using KLU as Direct Linear Solver
 Reference value :  1.33314e-08
 Reference value :  4.83595e-08
 Reference value :  7.97345e-08
 Reference value :  1.11149e-07
 Reference value :  1.42441e-07
 Reference value :  1.78101e-07
 Reference value :  2.07604e-07
 Reference value :  2.37809e-07
 Reference value :  2.68259e-07
 Reference value :  2.99386e-07
 Reference value :  3.29731e-07
No. of Data Rows : 68030

  Measurements for Transient Analysis

tphl                =  1.67140e-10 targ=  3.01106e-08 trig=  2.99435e-08
tplh                =  1.89184e-09 targ=  1.13722e-07 trig=  1.11830e-07
i_vdd_avg           =  -6.53399e-07 from=  1.00000e-08 to=  3.30001e-07
power_avg_uw        =  1.12087e+00


Total analysis time (seconds) = 2.82658

Total elapsed time (seconds) = 2.978 

Total DRAM available = 16384.000 MB.
DRAM currently available =  738.219 MB.
Maximum ngspice program size =   27.156 MB.
Current ngspice program size =   27.156 MB.

