
Note: Compatibility modes selected: hs a


Circuit: SKY130 library cell oai21_4 A1_to_Y__A2=0,B1=1

option SCALE: Scale is set to 1e-06 for instance and model parameters
Doing analysis at TEMP = 78.057853 and TNOM = 27.000000

Using KLU as Direct Linear Solver
 Reference value :  9.65640e-09
 Reference value :  4.20740e-08
 Reference value :  7.58740e-08
 Reference value :  1.09910e-07
 Reference value :  1.40480e-07
 Reference value :  1.76750e-07
 Reference value :  2.19169e-07
 Reference value :  2.65534e-07
 Reference value :  3.12605e-07
No. of Data Rows : 68030

  Measurements for Transient Analysis

tphl                =  6.73876e-10 targ=  2.78021e-08 trig=  2.71282e-08
tplh                =  1.67489e-09 targ=  1.05060e-07 trig=  1.03385e-07
i_vdd_avg           =  -2.88960e-06 from=  1.00000e-08 to=  3.30000e-07
power_avg_uw        =  5.54406e+00


Total analysis time (seconds) = 2.24035

Total elapsed time (seconds) = 2.402 

Total DRAM available = 16384.000 MB.
DRAM currently available =  244.266 MB.
Maximum ngspice program size =   24.031 MB.
Current ngspice program size =   24.031 MB.

