
Note: Compatibility modes selected: hs a


Circuit: SKY130 library cell oai21_1 A1_to_Y__A2=0,B1=1

option SCALE: Scale is set to 1e-06 for instance and model parameters
Doing analysis at TEMP = -16.974869 and TNOM = 27.000000

Using KLU as Direct Linear Solver
 Reference value :  4.95879e-08
 Reference value :  1.60188e-07
 Reference value :  2.69753e-07
No. of Data Rows : 68032

  Measurements for Transient Analysis

tphl                =  1.01346e-09 targ=  3.01662e-08 trig=  2.91527e-08
tplh                =  3.27015e-09 targ=  1.12728e-07 trig=  1.09458e-07
i_vdd_avg           =  -1.18109e-06 from=  1.00000e-08 to=  3.30003e-07
power_avg_uw        =  2.33288e+00


Total analysis time (seconds) = 0.793766

Total elapsed time (seconds) = 0.931 

Total DRAM available = 16384.000 MB.
DRAM currently available =  199.594 MB.
Maximum ngspice program size =   25.641 MB.
Current ngspice program size =   25.641 MB.

