
Note: Compatibility modes selected: hs a


Circuit: SKY130 library cell inv_4 A_to_Y

option SCALE: Scale is set to 1e-06 for instance and model parameters
Doing analysis at TEMP = 54.112151 and TNOM = 27.000000

Using KLU as Direct Linear Solver
 Reference value :  2.55875e-08
 Reference value :  1.15222e-07
 Reference value :  2.06960e-07
 Reference value :  2.89157e-07
No. of Data Rows : 68030

  Measurements for Transient Analysis

tphl                =  2.90319e-10 targ=  2.75965e-08 trig=  2.73061e-08
tplh                =  1.18836e-09 targ=  1.05107e-07 trig=  1.03918e-07
i_vdd_avg           =  -1.01396e-06 from=  1.00000e-08 to=  3.30002e-07
power_avg_uw        =  1.77100e+00


Total analysis time (seconds) = 1.06024

Total elapsed time (seconds) = 1.224 

Total DRAM available = 16384.000 MB.
DRAM currently available =  394.312 MB.
Maximum ngspice program size =   27.641 MB.
Current ngspice program size =   27.641 MB.

