
Note: Compatibility modes selected: hs a


Circuit: SKY130 library cell oai21_1 A1_to_Y__A2=0,B1=1

option SCALE: Scale is set to 1e-06 for instance and model parameters
Doing analysis at TEMP = 64.211237 and TNOM = 27.000000

Using KLU as Direct Linear Solver
 Reference value :  4.46461e-08
 Reference value :  1.44860e-07
 Reference value :  2.51366e-07
No. of Data Rows : 68034

  Measurements for Transient Analysis

tphl                =  1.78363e-09 targ=  2.82554e-08 trig=  2.64718e-08
tplh                =  3.62900e-09 targ=  1.05044e-07 trig=  1.01415e-07
i_vdd_avg           =  -1.63276e-06 from=  1.00000e-08 to=  3.30005e-07
power_avg_uw        =  2.71405e+00


Total analysis time (seconds) = 0.834939

Total elapsed time (seconds) = 0.976 

Total DRAM available = 16384.000 MB.
DRAM currently available =  134.266 MB.
Maximum ngspice program size =   27.641 MB.
Current ngspice program size =   27.641 MB.

