
Note: Compatibility modes selected: hs a


Circuit: SKY130 library cell mux2_4 A0_to_X__A1=0,S=0

option SCALE: Scale is set to 1e-06 for instance and model parameters
Doing analysis at TEMP = 5.443946 and TNOM = 27.000000

Using KLU as Direct Linear Solver
 Reference value :  1.50864e-08
 Reference value :  5.34978e-08
 Reference value :  9.13628e-08
 Reference value :  1.31838e-07
 Reference value :  1.70653e-07
 Reference value :  2.08318e-07
 Reference value :  2.49498e-07
 Reference value :  2.85883e-07
 Reference value :  3.24713e-07
No. of Data Rows : 68032

  Measurements for Transient Analysis

tplh                =  5.62982e-10 targ=  2.80931e-08 trig=  2.75301e-08
tphl                =  1.56329e-09 targ=  1.06154e-07 trig=  1.04590e-07
i_vdd_avg           =  -1.61158e-06 from=  1.00000e-08 to=  3.30003e-07
power_avg_uw        =  2.86597e+00


Total analysis time (seconds) = 2.24594

Total elapsed time (seconds) = 2.417 

Total DRAM available = 16384.000 MB.
DRAM currently available =  134.266 MB.
Maximum ngspice program size =   26.719 MB.
Current ngspice program size =   26.719 MB.

