
Note: Compatibility modes selected: hs a


Circuit: SKY130 library cell nand2_4 A_to_Y__B=1

option SCALE: Scale is set to 1e-06 for instance and model parameters
Doing analysis at TEMP = 12.349668 and TNOM = 27.000000

Using KLU as Direct Linear Solver
 Reference value :  1.55864e-08
 Reference value :  5.75774e-08
 Reference value :  1.03457e-07
 Reference value :  1.47757e-07
 Reference value :  1.90922e-07
 Reference value :  2.35707e-07
 Reference value :  2.84027e-07
 Reference value :  3.31302e-07
No. of Data Rows : 68032

  Measurements for Transient Analysis

tphl                =  6.89071e-10 targ=  2.69640e-08 trig=  2.62749e-08
tplh                =  1.43489e-09 targ=  1.02260e-07 trig=  1.00825e-07
i_vdd_avg           =  -1.44859e-06 from=  1.00000e-08 to=  3.30002e-07
power_avg_uw        =  2.46153e+00


Total analysis time (seconds) = 1.93981

Total elapsed time (seconds) = 2.098 

Total DRAM available = 16384.000 MB.
DRAM currently available =  134.266 MB.
Maximum ngspice program size =   28.172 MB.
Current ngspice program size =   28.172 MB.

