
Note: Compatibility modes selected: hs a


Circuit: SKY130 library cell inv_1 A_to_Y

option SCALE: Scale is set to 1e-06 for instance and model parameters
Doing analysis at TEMP = 111.974980 and TNOM = 27.000000

Using KLU as Direct Linear Solver
 Reference value :  1.12630e-07
No. of Data Rows : 68034

  Measurements for Transient Analysis

tphl                =  9.02421e-10 targ=  3.04163e-08 trig=  2.95139e-08
tplh                =  2.29255e-09 targ=  1.12834e-07 trig=  1.10542e-07
i_vdd_avg           =  -1.47776e-06 from=  1.00000e-08 to=  3.30003e-07
power_avg_uw        =  2.89418e+00


Total analysis time (seconds) = 0.385559

Total elapsed time (seconds) = 0.539 

Total DRAM available = 16384.000 MB.
DRAM currently available =   99.625 MB.
Maximum ngspice program size =   24.172 MB.
Current ngspice program size =   24.172 MB.

