
Note: Compatibility modes selected: hs a


Circuit: SKY130 library cell oai21_1 A1_to_Y__A2=0,B1=1

option SCALE: Scale is set to 1e-06 for instance and model parameters
Doing analysis at TEMP = 24.121757 and TNOM = 27.000000

Using KLU as Direct Linear Solver
 Reference value :  3.28954e-08
 Reference value :  1.34053e-07
 Reference value :  2.45260e-07
No. of Data Rows : 68034

  Measurements for Transient Analysis

tphl                =  2.49856e-10 targ=  2.43413e-08 trig=  2.40914e-08
tplh                =  6.99311e-10 targ=  9.49736e-08 trig=  9.42743e-08
i_vdd_avg           =  -5.37463e-07 from=  1.00000e-08 to=  3.30003e-07
power_avg_uw        =  9.72852e-01


Total analysis time (seconds) = 0.852011

Total elapsed time (seconds) = 1.009 

Total DRAM available = 16384.000 MB.
DRAM currently available =  202.047 MB.
Maximum ngspice program size =   25.406 MB.
Current ngspice program size =   25.406 MB.

