
Note: Compatibility modes selected: hs a


Circuit: SKY130 library cell oai21_1 A1_to_Y__A2=0,B1=1

option SCALE: Scale is set to 1e-06 for instance and model parameters
Doing analysis at TEMP = 4.623159 and TNOM = 27.000000

Using KLU as Direct Linear Solver
 Reference value :  4.25207e-08
 Reference value :  1.47194e-07
 Reference value :  2.49046e-07
No. of Data Rows : 68034

  Measurements for Transient Analysis

tphl                =  4.28850e-10 targ=  2.91705e-08 trig=  2.87416e-08
tplh                =  2.09178e-09 targ=  1.10317e-07 trig=  1.08225e-07
i_vdd_avg           =  -4.32820e-07 from=  1.00000e-08 to=  3.30004e-07
power_avg_uw        =  8.17875e-01


Total analysis time (seconds) = 0.869879

Total elapsed time (seconds) = 1.043 

Total DRAM available = 16384.000 MB.
DRAM currently available =  149.375 MB.
Maximum ngspice program size =   26.016 MB.
Current ngspice program size =   26.016 MB.

