
Note: Compatibility modes selected: hs a


Circuit: SKY130 library cell nor2_4 A_to_Y__B=0

option SCALE: Scale is set to 1e-06 for instance and model parameters
Doing analysis at TEMP = 19.068200 and TNOM = 27.000000

Using KLU as Direct Linear Solver
 Reference value :  1.51464e-08
 Reference value :  6.45474e-08
 Reference value :  1.05857e-07
 Reference value :  1.49647e-07
 Reference value :  1.94152e-07
 Reference value :  2.38227e-07
 Reference value :  2.79817e-07
 Reference value :  3.24387e-07
No. of Data Rows : 68032

  Measurements for Transient Analysis

tphl                =  6.01716e-12 targ=  2.87635e-08 trig=  2.87574e-08
tplh                =  1.50192e-09 targ=  1.09774e-07 trig=  1.08272e-07
i_vdd_avg           =  -6.96376e-07 from=  1.00000e-08 to=  3.30002e-07
power_avg_uw        =  1.24391e+00


Total analysis time (seconds) = 1.9948

Total elapsed time (seconds) = 2.150 

Total DRAM available = 16384.000 MB.
DRAM currently available =  137.578 MB.
Maximum ngspice program size =   25.312 MB.
Current ngspice program size =   25.312 MB.

