
Note: Compatibility modes selected: hs a


Circuit: SKY130 library cell mux2_1 A0_to_X__A1=0,S=0

option SCALE: Scale is set to 1e-06 for instance and model parameters
Doing analysis at TEMP = 13.152008 and TNOM = 27.000000

Using KLU as Direct Linear Solver
 Reference value :  2.37314e-08
 Reference value :  8.98939e-08
 Reference value :  1.50980e-07
 Reference value :  2.06054e-07
 Reference value :  2.58719e-07
 Reference value :  3.11510e-07
No. of Data Rows : 68030

  Measurements for Transient Analysis

tplh                =  3.35643e-10 targ=  2.86138e-08 trig=  2.82782e-08
tphl                =  1.51060e-09 targ=  1.08345e-07 trig=  1.06835e-07
i_vdd_avg           =  -1.78076e-07 from=  1.00000e-08 to=  3.30000e-07
power_avg_uw        =  3.02392e-01


Total analysis time (seconds) = 1.69545

Total elapsed time (seconds) = 1.844 

Total DRAM available = 16384.000 MB.
DRAM currently available =  430.422 MB.
Maximum ngspice program size =   27.219 MB.
Current ngspice program size =   27.219 MB.

