
Note: Compatibility modes selected: hs a


Circuit: SKY130 library cell nor2_4 A_to_Y__B=0

option SCALE: Scale is set to 1e-06 for instance and model parameters
Doing analysis at TEMP = 91.293447 and TNOM = 27.000000

Using KLU as Direct Linear Solver
 Reference value :  1.66964e-08
 Reference value :  6.31637e-08
 Reference value :  1.10504e-07
 Reference value :  1.57385e-07
 Reference value :  2.01364e-07
 Reference value :  2.44569e-07
 Reference value :  2.89490e-07
 Reference value :  3.35205e-07
No. of Data Rows : 68032

  Measurements for Transient Analysis

tphl                =  6.52153e-10 targ=  2.99303e-08 trig=  2.92781e-08
tplh                =  2.23797e-09 targ=  1.12072e-07 trig=  1.09834e-07
i_vdd_avg           =  -2.75298e-06 from=  1.00000e-08 to=  3.30005e-07
power_avg_uw        =  4.98234e+00


Total analysis time (seconds) = 1.89518

Total elapsed time (seconds) = 2.057 

Total DRAM available = 16384.000 MB.
DRAM currently available =  673.547 MB.
Maximum ngspice program size =   24.656 MB.
Current ngspice program size =   24.656 MB.

