
Note: Compatibility modes selected: hs a


Circuit: SKY130 library cell aoi21_4 A1_to_Y__A2=1,B1=0

option SCALE: Scale is set to 1e-06 for instance and model parameters
Doing analysis at TEMP = 47.845116 and TNOM = 27.000000

Using KLU as Direct Linear Solver
 Reference value :  1.17614e-08
 Reference value :  4.32143e-08
 Reference value :  7.33143e-08
 Reference value :  1.03374e-07
 Reference value :  1.33916e-07
 Reference value :  1.63126e-07
 Reference value :  1.92284e-07
 Reference value :  2.22239e-07
 Reference value :  2.52869e-07
 Reference value :  2.81026e-07
 Reference value :  3.10891e-07
No. of Data Rows : 68030

  Measurements for Transient Analysis

tphl                =  4.62453e-10 targ=  2.80508e-08 trig=  2.75884e-08
tplh                =  1.54186e-09 targ=  1.06307e-07 trig=  1.04765e-07
i_vdd_avg           =  -2.05399e-06 from=  1.00000e-08 to=  3.30001e-07
power_avg_uw        =  3.97639e+00


Total analysis time (seconds) = 3.01064

Total elapsed time (seconds) = 3.166 

Total DRAM available = 16384.000 MB.
DRAM currently available =  112.188 MB.
Maximum ngspice program size =   27.625 MB.
Current ngspice program size =   27.625 MB.

