
Note: Compatibility modes selected: hs a


Circuit: SKY130 library cell nand3_4 A_to_Y__B=1,C=1

option SCALE: Scale is set to 1e-06 for instance and model parameters
Doing analysis at TEMP = 115.536540 and TNOM = 27.000000

Using KLU as Direct Linear Solver
 Reference value :  9.60140e-09
 Reference value :  4.21814e-08
 Reference value :  7.54614e-08
 Reference value :  1.06871e-07
 Reference value :  1.37620e-07
 Reference value :  1.68425e-07
 Reference value :  2.02936e-07
 Reference value :  2.37556e-07
 Reference value :  2.66691e-07
 Reference value :  2.99390e-07
 Reference value :  3.33695e-07
No. of Data Rows : 68032

  Measurements for Transient Analysis

tphl                =  7.55337e-10 targ=  3.06198e-08 trig=  2.98644e-08
tplh                =  1.43891e-09 targ=  1.13032e-07 trig=  1.11593e-07
i_vdd_avg           =  -3.19266e-06 from=  1.00000e-08 to=  3.30000e-07
power_avg_uw        =  6.15384e+00


Total analysis time (seconds) = 2.73978

Total elapsed time (seconds) = 2.899 

Total DRAM available = 16384.000 MB.
DRAM currently available =  673.547 MB.
Maximum ngspice program size =   28.250 MB.
Current ngspice program size =   28.250 MB.

