
Note: Compatibility modes selected: hs a


Circuit: SKY130 library cell nor2_4 A_to_Y__B=0

option SCALE: Scale is set to 1e-06 for instance and model parameters
Doing analysis at TEMP = -18.045982 and TNOM = 27.000000

Using KLU as Direct Linear Solver
 Reference value :  1.54064e-08
 Reference value :  5.92371e-08
 Reference value :  1.03317e-07
 Reference value :  1.50072e-07
 Reference value :  1.97287e-07
 Reference value :  2.43352e-07
 Reference value :  2.90207e-07
 Reference value :  3.32617e-07
No. of Data Rows : 68032

  Measurements for Transient Analysis

tphl                =  4.61606e-10 targ=  2.67039e-08 trig=  2.62423e-08
tplh                =  1.54788e-09 targ=  1.02275e-07 trig=  1.00727e-07
i_vdd_avg           =  -1.04908e-06 from=  1.00000e-08 to=  3.30002e-07
power_avg_uw        =  1.79668e+00


Total analysis time (seconds) = 1.98837

Total elapsed time (seconds) = 2.147 

Total DRAM available = 16384.000 MB.
DRAM currently available =  130.188 MB.
Maximum ngspice program size =   25.953 MB.
Current ngspice program size =   25.953 MB.

