
Note: Compatibility modes selected: hs a


Circuit: SKY130 library cell xor2_4 A_to_X__B=0

option SCALE: Scale is set to 1e-06 for instance and model parameters
Doing analysis at TEMP = 34.828326 and TNOM = 27.000000

Using KLU as Direct Linear Solver
 Reference value :  5.51140e-09
 Reference value :  2.30664e-08
 Reference value :  4.22577e-08
 Reference value :  6.28827e-08
 Reference value :  8.64627e-08
 Reference value :  1.13183e-07
 Reference value :  1.41723e-07
 Reference value :  1.70433e-07
 Reference value :  1.99198e-07
 Reference value :  2.27053e-07
 Reference value :  2.55528e-07
 Reference value :  2.82393e-07
 Reference value :  3.10803e-07
 Reference value :  3.39803e-07
No. of Data Rows : 68032

  Measurements for Transient Analysis

tplh                =  3.86076e-10 targ=  2.96487e-08 trig=  2.92626e-08
tphl                =  1.35356e-09 targ=  1.11141e-07 trig=  1.09788e-07
i_vdd_avg           =  -2.25105e-06 from=  1.00000e-08 to=  3.30003e-07
power_avg_uw        =  3.96671e+00


Total analysis time (seconds) = 3.35966

Total elapsed time (seconds) = 3.528 

Total DRAM available = 16384.000 MB.
DRAM currently available =  125.234 MB.
Maximum ngspice program size =   26.406 MB.
Current ngspice program size =   26.391 MB.

