
Note: Compatibility modes selected: hs a


Circuit: SKY130 library cell nor2_1 A_to_Y__B=0

option SCALE: Scale is set to 1e-06 for instance and model parameters
Doing analysis at TEMP = 73.864133 and TNOM = 27.000000

Using KLU as Direct Linear Solver
 Reference value :  5.30667e-08
 Reference value :  1.98532e-07
No. of Data Rows : 68032

  Measurements for Transient Analysis

tphl                =  1.79506e-09 targ=  3.02647e-08 trig=  2.84696e-08
tplh                =  4.13421e-09 targ=  1.11543e-07 trig=  1.07409e-07
i_vdd_avg           =  -1.80302e-06 from=  1.00000e-08 to=  3.30001e-07
power_avg_uw        =  3.16673e+00


Total analysis time (seconds) = 0.612304

Total elapsed time (seconds) = 0.758 

Total DRAM available = 16384.000 MB.
DRAM currently available =  112.188 MB.
Maximum ngspice program size =   24.656 MB.
Current ngspice program size =   24.656 MB.

