
Note: Compatibility modes selected: hs a


Circuit: SKY130 library cell nor2_1 A_to_Y__B=0

option SCALE: Scale is set to 1e-06 for instance and model parameters
Doing analysis at TEMP = 9.755794 and TNOM = 27.000000

Using KLU as Direct Linear Solver
 Reference value :  5.84059e-08
 Reference value :  1.99396e-07
No. of Data Rows : 68034

  Measurements for Transient Analysis

tphl                =  5.47026e-10 targ=  2.76237e-08 trig=  2.70767e-08
tplh                =  1.93587e-09 targ=  1.05166e-07 trig=  1.03230e-07
i_vdd_avg           =  -6.80119e-07 from=  1.00000e-08 to=  3.30004e-07
power_avg_uw        =  1.30253e+00


Total analysis time (seconds) = 0.585638

Total elapsed time (seconds) = 0.741 

Total DRAM available = 16384.000 MB.
DRAM currently available =  256.734 MB.
Maximum ngspice program size =   26.250 MB.
Current ngspice program size =   26.250 MB.

