
Note: Compatibility modes selected: hs a


Circuit: SKY130 library cell nand2_4 A_to_Y__B=1

option SCALE: Scale is set to 1e-06 for instance and model parameters
Doing analysis at TEMP = 58.643977 and TNOM = 27.000000

Using KLU as Direct Linear Solver
 Reference value :  1.51364e-08
 Reference value :  5.95188e-08
 Reference value :  1.04654e-07
 Reference value :  1.53150e-07
 Reference value :  2.00314e-07
 Reference value :  2.47844e-07
 Reference value :  2.96490e-07
No. of Data Rows : 68030

  Measurements for Transient Analysis

tphl                =  1.15499e-09 targ=  2.94831e-08 trig=  2.83281e-08
tplh                =  2.24801e-09 targ=  1.09232e-07 trig=  1.06984e-07
i_vdd_avg           =  -2.13613e-06 from=  1.00000e-08 to=  3.30000e-07
power_avg_uw        =  3.55172e+00


Total analysis time (seconds) = 1.89388

Total elapsed time (seconds) = 2.066 

Total DRAM available = 16384.000 MB.
DRAM currently available =  738.219 MB.
Maximum ngspice program size =   28.688 MB.
Current ngspice program size =   28.688 MB.

