
Note: Compatibility modes selected: hs a


Circuit: SKY130 library cell nand2_1 A_to_Y__B=1

option SCALE: Scale is set to 1e-06 for instance and model parameters
Doing analysis at TEMP = 61.860889 and TNOM = 27.000000

Using KLU as Direct Linear Solver
 Reference value :  6.19817e-08
 Reference value :  2.06947e-07
No. of Data Rows : 68032

  Measurements for Transient Analysis

tphl                =  2.84493e-09 targ=  3.18820e-08 trig=  2.90371e-08
tplh                =  4.23870e-09 targ=  1.13350e-07 trig=  1.09111e-07
i_vdd_avg           =  -2.04236e-06 from=  1.00000e-08 to=  3.30001e-07
power_avg_uw        =  3.43335e+00


Total analysis time (seconds) = 0.596811

Total elapsed time (seconds) = 0.744 

Total DRAM available = 16384.000 MB.
DRAM currently available =  136.953 MB.
Maximum ngspice program size =   25.969 MB.
Current ngspice program size =   25.969 MB.

