
Note: Compatibility modes selected: hs a


Circuit: SKY130 library cell nor2_4 A_to_Y__B=0

option SCALE: Scale is set to 1e-06 for instance and model parameters
Doing analysis at TEMP = 10.626972 and TNOM = 27.000000

Using KLU as Direct Linear Solver
 Reference value :  1.36764e-08
 Reference value :  6.11665e-08
 Reference value :  1.05791e-07
 Reference value :  1.49856e-07
 Reference value :  1.94267e-07
 Reference value :  2.40822e-07
 Reference value :  2.83771e-07
 Reference value :  3.26601e-07
No. of Data Rows : 68032

  Measurements for Transient Analysis

tphl                =  3.47292e-10 targ=  2.61693e-08 trig=  2.58220e-08
tplh                =  1.18413e-09 targ=  1.00650e-07 trig=  9.94661e-08
i_vdd_avg           =  -1.88480e-06 from=  1.00000e-08 to=  3.30001e-07
power_avg_uw        =  3.67089e+00


Total analysis time (seconds) = 1.98296

Total elapsed time (seconds) = 2.140 

Total DRAM available = 16384.000 MB.
DRAM currently available =  225.844 MB.
Maximum ngspice program size =   25.875 MB.
Current ngspice program size =   25.875 MB.

