
Note: Compatibility modes selected: hs a


Circuit: SKY130 library cell nand2_1 A_to_Y__B=1

option SCALE: Scale is set to 1e-06 for instance and model parameters
Doing analysis at TEMP = -3.310646 and TNOM = 27.000000

Using KLU as Direct Linear Solver
 Reference value :  5.04399e-08
 Reference value :  2.05825e-07
No. of Data Rows : 68030

  Measurements for Transient Analysis

tphl                =  1.24434e-09 targ=  2.73680e-08 trig=  2.61237e-08
tplh                =  2.04843e-09 targ=  1.02420e-07 trig=  1.00371e-07
i_vdd_avg           =  -1.56611e-06 from=  1.00000e-08 to=  3.30002e-07
power_avg_uw        =  2.96026e+00


Total analysis time (seconds) = 0.576535

Total elapsed time (seconds) = 0.728 

Total DRAM available = 16384.000 MB.
DRAM currently available =  108.156 MB.
Maximum ngspice program size =   25.703 MB.
Current ngspice program size =   25.703 MB.

