
Note: Compatibility modes selected: hs a


Circuit: SKY130 library cell xor2_1 A_to_X__B=0

option SCALE: Scale is set to 1e-06 for instance and model parameters
Doing analysis at TEMP = 87.759161 and TNOM = 27.000000

Using KLU as Direct Linear Solver
 Reference value :  2.64383e-08
 Reference value :  9.91641e-08
 Reference value :  1.68354e-07
 Reference value :  2.39673e-07
 Reference value :  3.10754e-07
No. of Data Rows : 68032

  Measurements for Transient Analysis

tplh                =  1.69371e-09 targ=  2.63541e-08 trig=  2.46604e-08
tphl                =  6.86322e-10 targ=  9.66675e-08 trig=  9.59812e-08
i_vdd_avg           =  -1.22165e-06 from=  1.00000e-08 to=  3.30004e-07
power_avg_uw        =  2.07317e+00


Total analysis time (seconds) = 1.25437

Total elapsed time (seconds) = 1.400 

Total DRAM available = 16384.000 MB.
DRAM currently available =  225.844 MB.
Maximum ngspice program size =   26.016 MB.
Current ngspice program size =   26.016 MB.

