
Note: Compatibility modes selected: hs a


Circuit: SKY130 library cell nor2_1 A_to_Y__B=0

option SCALE: Scale is set to 1e-06 for instance and model parameters
Doing analysis at TEMP = 47.522307 and TNOM = 27.000000

Using KLU as Direct Linear Solver
 Reference value :  5.48703e-08
 Reference value :  2.01750e-07
No. of Data Rows : 68034

  Measurements for Transient Analysis

tphl                =  1.30204e-09 targ=  2.81185e-08 trig=  2.68164e-08
tplh                =  3.07841e-09 targ=  1.05528e-07 trig=  1.02449e-07
i_vdd_avg           =  -1.18157e-06 from=  1.00000e-08 to=  3.30003e-07
power_avg_uw        =  1.99772e+00


Total analysis time (seconds) = 0.651054

Total elapsed time (seconds) = 0.795 

Total DRAM available = 16384.000 MB.
DRAM currently available =  150.266 MB.
Maximum ngspice program size =   25.219 MB.
Current ngspice program size =   25.219 MB.

