
Note: Compatibility modes selected: hs a


Circuit: SKY130 library cell inv_1 A_to_Y

option SCALE: Scale is set to 1e-06 for instance and model parameters
Doing analysis at TEMP = 38.766225 and TNOM = 27.000000

Using KLU as Direct Linear Solver
 Reference value :  9.25408e-08
No. of Data Rows : 68034

  Measurements for Transient Analysis

tphl                =  4.01093e-10 targ=  2.45727e-08 trig=  2.41716e-08
tplh                =  8.00679e-10 targ=  9.53156e-08 trig=  9.45149e-08
i_vdd_avg           =  -1.36864e-06 from=  1.00000e-08 to=  3.30004e-07
power_avg_uw        =  2.55979e+00


Total analysis time (seconds) = 0.356029

Total elapsed time (seconds) = 0.502 

Total DRAM available = 16384.000 MB.
DRAM currently available =  673.547 MB.
Maximum ngspice program size =   25.484 MB.
Current ngspice program size =   25.484 MB.

