
Note: Compatibility modes selected: hs a


Circuit: SKY130 library cell inv_1 A_to_Y

option SCALE: Scale is set to 1e-06 for instance and model parameters
Doing analysis at TEMP = 10.990205 and TNOM = 27.000000

Using KLU as Direct Linear Solver
 Reference value :  9.55572e-08
No. of Data Rows : 68032

  Measurements for Transient Analysis

tphl                =  5.16454e-10 targ=  2.59913e-08 trig=  2.54749e-08
tplh                =  1.14255e-09 targ=  9.95671e-08 trig=  9.84246e-08
i_vdd_avg           =  -5.13814e-07 from=  1.00000e-08 to=  3.30002e-07
power_avg_uw        =  9.16331e-01


Total analysis time (seconds) = 0.365045

Total elapsed time (seconds) = 0.525 

Total DRAM available = 16384.000 MB.
DRAM currently available =  130.188 MB.
Maximum ngspice program size =   24.641 MB.
Current ngspice program size =   24.641 MB.

