
Note: Compatibility modes selected: hs a


Circuit: SKY130 library cell xor2_4 A_to_X__B=0

option SCALE: Scale is set to 1e-06 for instance and model parameters
Doing analysis at TEMP = 67.343880 and TNOM = 27.000000

Using KLU as Direct Linear Solver
 Reference value :  5.89640e-09
 Reference value :  2.17364e-08
 Reference value :  4.01144e-08
 Reference value :  5.85194e-08
 Reference value :  7.80394e-08
 Reference value :  9.38894e-08
 Reference value :  1.12521e-07
 Reference value :  1.30346e-07
 Reference value :  1.49671e-07
 Reference value :  1.69666e-07
 Reference value :  1.87189e-07
 Reference value :  2.04404e-07
 Reference value :  2.22054e-07
 Reference value :  2.38574e-07
 Reference value :  2.56624e-07
 Reference value :  2.75441e-07
 Reference value :  2.94216e-07
 Reference value :  3.12556e-07
 Reference value :  3.31246e-07
No. of Data Rows : 68030

  Measurements for Transient Analysis

tplh                =  5.88523e-11 targ=  2.56348e-08 trig=  2.55759e-08
tphl                =  4.20179e-10 targ=  9.91480e-08 trig=  9.87278e-08
i_vdd_avg           =  -7.12084e-07 from=  1.00000e-08 to=  3.30001e-07
power_avg_uw        =  1.37001e+00


Total analysis time (seconds) = 4.98569

Total elapsed time (seconds) = 5.148 

Total DRAM available = 16384.000 MB.
DRAM currently available =  225.844 MB.
Maximum ngspice program size =   29.719 MB.
Current ngspice program size =   29.719 MB.

