
Note: Compatibility modes selected: hs a


Circuit: SKY130 library cell nand3_1 A_to_Y__B=1,C=1

option SCALE: Scale is set to 1e-06 for instance and model parameters
Doing analysis at TEMP = 10.517581 and TNOM = 27.000000

Using KLU as Direct Linear Solver
 Reference value :  3.62733e-08
 Reference value :  1.41424e-07
 Reference value :  2.44838e-07
No. of Data Rows : 68032

  Measurements for Transient Analysis

tphl                =  9.96875e-10 targ=  2.58523e-08 trig=  2.48554e-08
tplh                =  1.25604e-09 targ=  9.78222e-08 trig=  9.65662e-08
i_vdd_avg           =  -1.09829e-06 from=  1.00000e-08 to=  3.30004e-07
power_avg_uw        =  1.90752e+00


Total analysis time (seconds) = 0.847899

Total elapsed time (seconds) = 0.991 

Total DRAM available = 16384.000 MB.
DRAM currently available =  120.047 MB.
Maximum ngspice program size =   24.844 MB.
Current ngspice program size =   24.844 MB.

