
Note: Compatibility modes selected: hs a


Circuit: SKY130 library cell nand3_1 A_to_Y__B=1,C=1

option SCALE: Scale is set to 1e-06 for instance and model parameters
Doing analysis at TEMP = 64.108013 and TNOM = 27.000000

Using KLU as Direct Linear Solver
 Reference value :  4.66202e-08
 Reference value :  1.57948e-07
 Reference value :  2.58675e-07
No. of Data Rows : 68034

  Measurements for Transient Analysis

tphl                =  1.50483e-09 targ=  2.83012e-08 trig=  2.67963e-08
tplh                =  1.97936e-09 targ=  1.04368e-07 trig=  1.02389e-07
i_vdd_avg           =  -1.38927e-06 from=  1.00000e-08 to=  3.30003e-07
power_avg_uw        =  2.66473e+00


Total analysis time (seconds) = 0.801238

Total elapsed time (seconds) = 0.946 

Total DRAM available = 16384.000 MB.
DRAM currently available =  150.266 MB.
Maximum ngspice program size =   24.266 MB.
Current ngspice program size =   24.266 MB.

