
Note: Compatibility modes selected: hs a


Circuit: SKY130 library cell oai21_4 A1_to_Y__A2=0,B1=1

option SCALE: Scale is set to 1e-06 for instance and model parameters
Doing analysis at TEMP = 116.300590 and TNOM = 27.000000

Using KLU as Direct Linear Solver
 Reference value :  1.11364e-08
 Reference value :  4.13671e-08
 Reference value :  7.24571e-08
 Reference value :  1.05577e-07
 Reference value :  1.35917e-07
 Reference value :  1.68482e-07
 Reference value :  2.02997e-07
 Reference value :  2.34767e-07
 Reference value :  2.65582e-07
 Reference value :  2.97342e-07
 Reference value :  3.30022e-07
No. of Data Rows : 68032

  Measurements for Transient Analysis

tphl                =  5.36991e-10 targ=  2.98318e-08 trig=  2.92948e-08
tplh                =  1.79783e-09 targ=  1.11682e-07 trig=  1.09884e-07
i_vdd_avg           =  -3.20076e-06 from=  1.00000e-08 to=  3.30002e-07
power_avg_uw        =  6.17572e+00


Total analysis time (seconds) = 2.80191

Total elapsed time (seconds) = 2.947 

Total DRAM available = 16384.000 MB.
DRAM currently available =  159.266 MB.
Maximum ngspice program size =   24.984 MB.
Current ngspice program size =   24.984 MB.

