
Note: Compatibility modes selected: hs a


Circuit: SKY130 library cell aoi21_4 A1_to_Y__A2=1,B1=0

option SCALE: Scale is set to 1e-06 for instance and model parameters
Doing analysis at TEMP = 80.840310 and TNOM = 27.000000

Using KLU as Direct Linear Solver
 Reference value :  1.18014e-08
 Reference value :  4.19447e-08
 Reference value :  7.03447e-08
 Reference value :  9.83647e-08
 Reference value :  1.24107e-07
 Reference value :  1.51467e-07
 Reference value :  1.82507e-07
 Reference value :  2.10960e-07
 Reference value :  2.41115e-07
 Reference value :  2.67972e-07
 Reference value :  3.02667e-07
 Reference value :  3.31437e-07
No. of Data Rows : 68030

  Measurements for Transient Analysis

tphl                =  1.74651e-10 targ=  2.53032e-08 trig=  2.51286e-08
tplh                =  4.47668e-10 targ=  9.78334e-08 trig=  9.73857e-08
i_vdd_avg           =  -6.16090e-07 from=  1.00000e-08 to=  3.30002e-07
power_avg_uw        =  1.15920e+00


Total analysis time (seconds) = 3.16231

Total elapsed time (seconds) = 3.309 

Total DRAM available = 16384.000 MB.
DRAM currently available =  256.734 MB.
Maximum ngspice program size =   25.562 MB.
Current ngspice program size =   25.562 MB.

