
Note: Compatibility modes selected: hs a


Circuit: SKY130 library cell oai21_4 A1_to_Y__A2=0,B1=1

option SCALE: Scale is set to 1e-06 for instance and model parameters
Doing analysis at TEMP = 36.378384 and TNOM = 27.000000

Using KLU as Direct Linear Solver
 Reference value :  7.71140e-09
 Reference value :  3.91819e-08
 Reference value :  6.71119e-08
 Reference value :  9.78519e-08
 Reference value :  1.27046e-07
 Reference value :  1.56636e-07
 Reference value :  1.85628e-07
 Reference value :  2.17482e-07
 Reference value :  2.48472e-07
 Reference value :  2.80166e-07
 Reference value :  3.09881e-07
No. of Data Rows : 68032

  Measurements for Transient Analysis

tphl                =  3.19351e-10 targ=  2.65165e-08 trig=  2.61972e-08
tplh                =  1.04476e-09 targ=  1.01636e-07 trig=  1.00592e-07
i_vdd_avg           =  -9.89396e-07 from=  1.00000e-08 to=  3.30001e-07
power_avg_uw        =  1.81528e+00


Total analysis time (seconds) = 2.8878

Total elapsed time (seconds) = 3.073 

Total DRAM available = 16384.000 MB.
DRAM currently available =  123.875 MB.
Maximum ngspice program size =   27.109 MB.
Current ngspice program size =   27.109 MB.

