
Note: Compatibility modes selected: hs a


Circuit: SKY130 library cell inv_1 A_to_Y

option SCALE: Scale is set to 1e-06 for instance and model parameters
Doing analysis at TEMP = 82.727980 and TNOM = 27.000000

Using KLU as Direct Linear Solver
 Reference value :  1.02598e-07
No. of Data Rows : 68032

  Measurements for Transient Analysis

tphl                =  1.41301e-09 targ=  2.77007e-08 trig=  2.62877e-08
tplh                =  2.33570e-09 targ=  1.03199e-07 trig=  1.00863e-07
i_vdd_avg           =  -2.26666e-06 from=  1.00000e-08 to=  3.30003e-07
power_avg_uw        =  4.21012e+00


Total analysis time (seconds) = 0.35612

Total elapsed time (seconds) = 0.491 

Total DRAM available = 16384.000 MB.
DRAM currently available =  156.000 MB.
Maximum ngspice program size =   24.422 MB.
Current ngspice program size =   24.422 MB.

