
Note: Compatibility modes selected: hs a


Circuit: SKY130 library cell inv_1 A_to_Y

option SCALE: Scale is set to 1e-06 for instance and model parameters
Doing analysis at TEMP = -32.269565 and TNOM = 27.000000

Using KLU as Direct Linear Solver
 Reference value :  1.01236e-07
No. of Data Rows : 68034

  Measurements for Transient Analysis

tphl                =  1.89086e-09 targ=  3.02826e-08 trig=  2.83918e-08
tplh                =  4.13099e-09 targ=  1.11306e-07 trig=  1.07175e-07
i_vdd_avg           =  -1.60099e-06 from=  1.00000e-08 to=  3.30005e-07
power_avg_uw        =  2.70602e+00


Total analysis time (seconds) = 0.33465

Total elapsed time (seconds) = 0.470 

Total DRAM available = 16384.000 MB.
DRAM currently available =  218.797 MB.
Maximum ngspice program size =   23.844 MB.
Current ngspice program size =   23.844 MB.

