
Note: Compatibility modes selected: hs a


Circuit: SKY130 library cell aoi21_4 A1_to_Y__A2=1,B1=0

option SCALE: Scale is set to 1e-06 for instance and model parameters
Doing analysis at TEMP = -39.030973 and TNOM = 27.000000

Using KLU as Direct Linear Solver
 Reference value :  8.33140e-09
 Reference value :  3.88446e-08
 Reference value :  6.88446e-08
 Reference value :  9.79396e-08
 Reference value :  1.26562e-07
 Reference value :  1.57407e-07
 Reference value :  1.87168e-07
 Reference value :  2.15990e-07
 Reference value :  2.48055e-07
 Reference value :  2.79702e-07
 Reference value :  3.09727e-07
 Reference value :  3.38082e-07
No. of Data Rows : 68030

  Measurements for Transient Analysis

tphl                =  6.33082e-10 targ=  2.95116e-08 trig=  2.88786e-08
tplh                =  2.69284e-09 targ=  1.11329e-07 trig=  1.08636e-07
i_vdd_avg           =  -1.22009e-06 from=  1.00000e-08 to=  3.30002e-07
power_avg_uw        =  2.14312e+00


Total analysis time (seconds) = 2.93303

Total elapsed time (seconds) = 3.108 

Total DRAM available = 16384.000 MB.
DRAM currently available =  134.266 MB.
Maximum ngspice program size =   26.938 MB.
Current ngspice program size =   26.938 MB.

