
Note: Compatibility modes selected: hs a


Circuit: SKY130 library cell mux2_1 A0_to_X__A1=0,S=0

option SCALE: Scale is set to 1e-06 for instance and model parameters
Doing analysis at TEMP = 117.312620 and TNOM = 27.000000

Using KLU as Direct Linear Solver
 Reference value :  1.97264e-08
 Reference value :  7.33907e-08
 Reference value :  1.29014e-07
 Reference value :  1.91593e-07
 Reference value :  2.45626e-07
 Reference value :  3.08134e-07
No. of Data Rows : 68034

  Measurements for Transient Analysis

tplh                =  4.53287e-10 targ=  2.95149e-08 trig=  2.90616e-08
tphl                =  1.65526e-09 targ=  1.10840e-07 trig=  1.09185e-07
i_vdd_avg           =  -1.15314e-06 from=  1.00000e-08 to=  3.30004e-07
power_avg_uw        =  2.11413e+00


Total analysis time (seconds) = 1.56177

Total elapsed time (seconds) = 1.727 

Total DRAM available = 16384.000 MB.
DRAM currently available =  159.266 MB.
Maximum ngspice program size =   29.641 MB.
Current ngspice program size =   29.641 MB.

