
Note: Compatibility modes selected: hs a


Circuit: SKY130 library cell inv_4 A_to_Y

option SCALE: Scale is set to 1e-06 for instance and model parameters
Doing analysis at TEMP = 36.187095 and TNOM = 27.000000

Using KLU as Direct Linear Solver
 Reference value :  3.63343e-08
 Reference value :  1.14471e-07
 Reference value :  2.01059e-07
 Reference value :  2.84456e-07
No. of Data Rows : 68030

  Measurements for Transient Analysis

tphl                =  3.63422e-10 targ=  2.57118e-08 trig=  2.53484e-08
tplh                =  8.58698e-10 targ=  9.89039e-08 trig=  9.80452e-08
i_vdd_avg           =  -1.62108e-06 from=  1.00000e-08 to=  3.30001e-07
power_avg_uw        =  3.00163e+00


Total analysis time (seconds) = 1.12522

Total elapsed time (seconds) = 1.273 

Total DRAM available = 16384.000 MB.
DRAM currently available =  227.438 MB.
Maximum ngspice program size =   28.328 MB.
Current ngspice program size =   28.328 MB.

