
Note: Compatibility modes selected: hs a


Circuit: SKY130 library cell xor2_1 A_to_X__B=0

option SCALE: Scale is set to 1e-06 for instance and model parameters
Doing analysis at TEMP = 18.002092 and TNOM = 27.000000

Using KLU as Direct Linear Solver
 Reference value :  2.62125e-08
 Reference value :  9.54207e-08
 Reference value :  1.68274e-07
 Reference value :  2.37891e-07
 Reference value :  3.07754e-07
No. of Data Rows : 68034

  Measurements for Transient Analysis

tplh                =  1.25611e-09 targ=  2.63777e-08 trig=  2.51216e-08
tphl                =  6.71541e-10 targ=  9.80364e-08 trig=  9.73649e-08
i_vdd_avg           =  -1.35061e-06 from=  1.00000e-08 to=  3.30004e-07
power_avg_uw        =  2.62332e+00


Total analysis time (seconds) = 1.26907

Total elapsed time (seconds) = 1.417 

Total DRAM available = 16384.000 MB.
DRAM currently available =  673.547 MB.
Maximum ngspice program size =   26.094 MB.
Current ngspice program size =   26.094 MB.

