
Note: Compatibility modes selected: hs a


Circuit: SKY130 library cell xor2_4 A_to_X__B=0

option SCALE: Scale is set to 1e-06 for instance and model parameters
Doing analysis at TEMP = -10.731808 and TNOM = 27.000000

Using KLU as Direct Linear Solver
 Reference value :  5.71640e-09
 Reference value :  2.43425e-08
 Reference value :  4.21963e-08
 Reference value :  5.99863e-08
 Reference value :  7.79963e-08
 Reference value :  9.63563e-08
 Reference value :  1.14220e-07
 Reference value :  1.32400e-07
 Reference value :  1.50355e-07
 Reference value :  1.69400e-07
 Reference value :  1.88948e-07
 Reference value :  2.07031e-07
 Reference value :  2.24941e-07
 Reference value :  2.44821e-07
 Reference value :  2.64941e-07
 Reference value :  2.84435e-07
 Reference value :  3.03275e-07
 Reference value :  3.22990e-07
No. of Data Rows : 68032

  Measurements for Transient Analysis

tplh                =  -9.90785e-11 targ=  2.87578e-08 trig=  2.88569e-08
tphl                =  1.22421e-09 targ=  1.09795e-07 trig=  1.08571e-07
i_vdd_avg           =  -1.04096e-06 from=  1.00000e-08 to=  3.30000e-07
power_avg_uw        =  1.93863e+00


Total analysis time (seconds) = 4.80517

Total elapsed time (seconds) = 4.971 

Total DRAM available = 16384.000 MB.
DRAM currently available =  127.203 MB.
Maximum ngspice program size =   27.891 MB.
Current ngspice program size =   27.891 MB.

