
Note: Compatibility modes selected: hs a


Circuit: SKY130 library cell nor2_1 A_to_Y__B=0

option SCALE: Scale is set to 1e-06 for instance and model parameters
Doing analysis at TEMP = 28.307678 and TNOM = 27.000000

Using KLU as Direct Linear Solver
 Reference value :  5.66308e-08
 Reference value :  2.05101e-07
No. of Data Rows : 68034

  Measurements for Transient Analysis

tphl                =  7.46386e-10 targ=  2.63930e-08 trig=  2.56466e-08
tplh                =  1.86337e-09 targ=  1.00803e-07 trig=  9.89399e-08
i_vdd_avg           =  -1.02163e-06 from=  1.00000e-08 to=  3.30004e-07
power_avg_uw        =  1.89850e+00


Total analysis time (seconds) = 0.580204

Total elapsed time (seconds) = 0.734 

Total DRAM available = 16384.000 MB.
DRAM currently available =  134.266 MB.
Maximum ngspice program size =   26.312 MB.
Current ngspice program size =   26.312 MB.

