
Note: Compatibility modes selected: hs a


Circuit: SKY130 library cell nand2_4 A_to_Y__B=1

option SCALE: Scale is set to 1e-06 for instance and model parameters
Doing analysis at TEMP = 97.022665 and TNOM = 27.000000

Using KLU as Direct Linear Solver
 Reference value :  1.36864e-08
 Reference value :  5.48326e-08
 Reference value :  9.94576e-08
 Reference value :  1.45253e-07
 Reference value :  1.88643e-07
 Reference value :  2.33678e-07
 Reference value :  2.77438e-07
 Reference value :  3.16933e-07
No. of Data Rows : 68032

  Measurements for Transient Analysis

tphl                =  4.25536e-10 targ=  2.61081e-08 trig=  2.56825e-08
tplh                =  7.53047e-10 targ=  9.98006e-08 trig=  9.90476e-08
i_vdd_avg           =  -1.20335e-06 from=  1.00000e-08 to=  3.30003e-07
power_avg_uw        =  2.15119e+00


Total analysis time (seconds) = 2.04345

Total elapsed time (seconds) = 2.253 

Total DRAM available = 16384.000 MB.
DRAM currently available =  123.938 MB.
Maximum ngspice program size =   27.781 MB.
Current ngspice program size =   27.781 MB.

