
Note: Compatibility modes selected: hs a


Circuit: SKY130 library cell inv_4 A_to_Y

option SCALE: Scale is set to 1e-06 for instance and model parameters
Doing analysis at TEMP = 88.950310 and TNOM = 27.000000

Using KLU as Direct Linear Solver
 Reference value :  3.59550e-08
 Reference value :  1.17342e-07
 Reference value :  1.98750e-07
 Reference value :  2.87082e-07
No. of Data Rows : 68030

  Measurements for Transient Analysis

tphl                =  1.40370e-10 targ=  2.48841e-08 trig=  2.47437e-08
tplh                =  3.51577e-10 targ=  9.65828e-08 trig=  9.62312e-08
i_vdd_avg           =  -8.63797e-07 from=  1.00000e-08 to=  3.30002e-07
power_avg_uw        =  1.69436e+00


Total analysis time (seconds) = 1.06119

Total elapsed time (seconds) = 1.207 

Total DRAM available = 16384.000 MB.
DRAM currently available =  159.266 MB.
Maximum ngspice program size =   26.828 MB.
Current ngspice program size =   26.828 MB.

