
Note: No compatibility mode selected!


Circuit: INV seed characterization sample 4313031

Doing analysis at TEMP = 61.557700 and TNOM = 27.000000

Using SPARSE 1.3 as Direct Linear Solver

Initial Transient Solution
--------------------------

Node                                   Voltage
----                                   -------
vdd                                     1.9181
in                                           0
out                                     1.9181
vin#branch                                   0
vdd#branch                        -2.34354e-12

 Reference value :  6.59137e-08
No. of Data Rows : 60046

  Measurements for Transient Analysis

tphl                =  3.62039e-10 targ=  2.37024e-09 trig=  2.00820e-09
tplh                =  3.36821e-10 targ=  2.23614e-08 trig=  2.20246e-08
i_vdd_avg           =  -5.78370e-06 from=  5.00000e-09 to=  1.10002e-07
power_avg_uw        =  1.10937e+01


Total analysis time (seconds) = 0.312915

Total elapsed time (seconds) = 0.388 

Total DRAM available = 16384.000 MB.
DRAM currently available =  104.641 MB.
Maximum ngspice program size =   12.562 MB.
Current ngspice program size =   11.594 MB.

