
Note: No compatibility mode selected!


Circuit: INV seed characterization sample 4313024

Doing analysis at TEMP = -8.225770 and TNOM = 27.000000

Using SPARSE 1.3 as Direct Linear Solver

Initial Transient Solution
--------------------------

Node                                   Voltage
----                                   -------
vdd                                    1.66223
in                                           0
out                                    1.66223
vin#branch                                   0
vdd#branch                        -1.67334e-12

 Reference value :  7.33016e-08
No. of Data Rows : 60047

  Measurements for Transient Analysis

tphl                =  3.54755e-10 targ=  2.55040e-09 trig=  2.19565e-09
tplh                =  5.73864e-10 targ=  2.31608e-08 trig=  2.25869e-08
i_vdd_avg           =  -4.87974e-06 from=  5.00000e-09 to=  1.10002e-07
power_avg_uw        =  8.11125e+00


Total analysis time (seconds) = 0.295448

Total elapsed time (seconds) = 0.366 

Total DRAM available = 16384.000 MB.
DRAM currently available =  125.859 MB.
Maximum ngspice program size =   12.562 MB.
Current ngspice program size =   12.188 MB.

