
Note: No compatibility mode selected!


Circuit: NAND2 seed characterization sample 4313032

Doing analysis at TEMP = 82.432700 and TNOM = 27.000000

Using SPARSE 1.3 as Direct Linear Solver

Initial Transient Solution
--------------------------

Node                                   Voltage
----                                   -------
vdd                                    1.83456
in                                           0
out                                    1.83456
nmid                                 0.0376009
vin#branch                                   0
vdd#branch                        -2.05099e-12

 Reference value :  4.19502e-08
 Reference value :  1.00925e-07
No. of Data Rows : 60044

  Measurements for Transient Analysis

tphl                =  5.89099e-10 targ=  2.64190e-09 trig=  2.05280e-09
tplh                =  1.70237e-10 targ=  2.23286e-08 trig=  2.21584e-08
i_vdd_avg           =  -1.91028e-06 from=  5.00000e-09 to=  1.10000e-07
power_avg_uw        =  3.50452e+00


Total analysis time (seconds) = 0.492854

Total elapsed time (seconds) = 0.571 

Total DRAM available = 16384.000 MB.
DRAM currently available =  104.641 MB.
Maximum ngspice program size =   12.656 MB.
Current ngspice program size =   12.203 MB.

