
Note: No compatibility mode selected!


Circuit: NOR2 seed characterization sample 4313025

Doing analysis at TEMP = 70.467400 and TNOM = 27.000000

Using SPARSE 1.3 as Direct Linear Solver

Initial Transient Solution
--------------------------

Node                                   Voltage
----                                   -------
vdd                                    1.63269
in                                           0
out                                    1.63269
pmid                                   1.63269
vin#branch                                   0
vdd#branch                        -5.25833e-12

 Reference value :  4.62023e-08
 Reference value :  1.06204e-07
No. of Data Rows : 60047

  Measurements for Transient Analysis

tphl                =  1.85359e-10 targ=  2.23500e-09 trig=  2.04964e-09
tplh                =  1.24624e-09 targ=  2.33952e-08 trig=  2.21489e-08
i_vdd_avg           =  -5.07459e-06 from=  5.00000e-09 to=  1.10002e-07
power_avg_uw        =  8.28523e+00


Total analysis time (seconds) = 0.485415

Total elapsed time (seconds) = 0.556 

Total DRAM available = 16384.000 MB.
DRAM currently available =  108.641 MB.
Maximum ngspice program size =   12.562 MB.
Current ngspice program size =   12.000 MB.

