
Note: No compatibility mode selected!


Circuit: NAND2 seed characterization sample 4313012

Doing analysis at TEMP = -13.333800 and TNOM = 27.000000

Using SPARSE 1.3 as Direct Linear Solver

Initial Transient Solution
--------------------------

Node                                   Voltage
----                                   -------
vdd                                    1.67906
in                                           0
out                                    1.67906
nmid                               0.000124524
vin#branch                                   0
vdd#branch                        -1.68942e-12

 Reference value :  4.23113e-08
 Reference value :  1.02505e-07
No. of Data Rows : 60044

  Measurements for Transient Analysis

tphl                =  2.45843e-10 targ=  2.37701e-09 trig=  2.13117e-09
tplh                =  1.50852e-10 targ=  2.25444e-08 trig=  2.23935e-08
i_vdd_avg           =  -1.15555e-06 from=  5.00000e-09 to=  1.10002e-07
power_avg_uw        =  1.94024e+00


Total analysis time (seconds) = 0.48813

Total elapsed time (seconds) = 0.564 

Total DRAM available = 16384.000 MB.
DRAM currently available =  113.078 MB.
Maximum ngspice program size =   12.891 MB.
Current ngspice program size =   12.891 MB.

