
Note: No compatibility mode selected!


Circuit: NOR2 seed characterization sample 4313046

Doing analysis at TEMP = 77.234300 and TNOM = 27.000000

Using SPARSE 1.3 as Direct Linear Solver

Initial Transient Solution
--------------------------

Node                                   Voltage
----                                   -------
vdd                                    1.86147
in                                           0
out                                    1.86147
pmid                                   1.86147
vin#branch                                   0
vdd#branch                        -4.77531e-12

 Reference value :  4.12204e-08
 Reference value :  9.53157e-08
No. of Data Rows : 60041

  Measurements for Transient Analysis

tphl                =  2.20621e-10 targ=  2.44598e-09 trig=  2.22536e-09
tplh                =  5.49721e-10 targ=  2.32258e-08 trig=  2.26761e-08
i_vdd_avg           =  -1.60207e-06 from=  5.00000e-09 to=  1.10000e-07
power_avg_uw        =  2.98220e+00


Total analysis time (seconds) = 0.537212

Total elapsed time (seconds) = 0.612 

Total DRAM available = 16384.000 MB.
DRAM currently available =   89.859 MB.
Maximum ngspice program size =   12.562 MB.
Current ngspice program size =   11.688 MB.

