
Note: No compatibility mode selected!


Circuit: XOR2 seed characterization sample 4313030

Doing analysis at TEMP = 4.484760 and TNOM = 27.000000

Using SPARSE 1.3 as Direct Linear Solver

Initial Transient Solution
--------------------------

Node                                   Voltage
----                                   -------
vdd                                    1.79787
in                                           0
b                                      1.79787
abar                                   1.79787
bbar                               2.02461e-09
out                                    1.79787
vb#branch                                    0
vin#branch                         1.81268e-12
vdd#branch                        -1.08557e-11

 Reference value :  2.41050e-08
 Reference value :  5.79260e-08
 Reference value :  9.24420e-08
No. of Data Rows : 60047

  Measurements for Transient Analysis

tphl                =  4.27984e-10 targ=  2.47449e-09 trig=  2.04651e-09
tplh                =  7.12182e-10 targ=  2.28517e-08 trig=  2.21395e-08
i_vdd_avg           =  -5.14603e-06 from=  5.00000e-09 to=  1.10001e-07
power_avg_uw        =  9.25189e+00


Total analysis time (seconds) = 0.845702

Total elapsed time (seconds) = 0.924 

Total DRAM available = 16384.000 MB.
DRAM currently available =  106.859 MB.
Maximum ngspice program size =   12.609 MB.
Current ngspice program size =   11.734 MB.

