
Note: No compatibility mode selected!


Circuit: INV seed characterization sample 4313005

Doing analysis at TEMP = -3.846470 and TNOM = 27.000000

Using SPARSE 1.3 as Direct Linear Solver

Initial Transient Solution
--------------------------

Node                                   Voltage
----                                   -------
vdd                                    1.62706
in                                           0
out                                    1.62706
vin#branch                                   0
vdd#branch                        -1.63902e-12

 Reference value :  6.05935e-08
No. of Data Rows : 60044

  Measurements for Transient Analysis

tphl                =  2.96863e-10 targ=  2.48009e-09 trig=  2.18322e-09
tplh                =  4.99959e-10 targ=  2.30496e-08 trig=  2.25497e-08
i_vdd_avg           =  -3.93024e-06 from=  5.00000e-09 to=  1.10002e-07
power_avg_uw        =  6.39474e+00


Total analysis time (seconds) = 0.344304

Total elapsed time (seconds) = 0.421 

Total DRAM available = 16384.000 MB.
DRAM currently available =   75.719 MB.
Maximum ngspice program size =   12.562 MB.
Current ngspice program size =   11.750 MB.

