
Note: No compatibility mode selected!


Circuit: XOR2 seed characterization sample 4313002

Doing analysis at TEMP = 76.973900 and TNOM = 27.000000

Using SPARSE 1.3 as Direct Linear Solver

Initial Transient Solution
--------------------------

Node                                   Voltage
----                                   -------
vdd                                    1.62493
in                                           0
b                                      1.62493
abar                                   1.62493
bbar                               8.13356e-09
out                                    1.62493
vb#branch                                    0
vin#branch                         2.12623e-12
vdd#branch                        -1.07267e-11

 Reference value :  2.29158e-08
 Reference value :  5.53334e-08
 Reference value :  8.99734e-08
No. of Data Rows : 60044

  Measurements for Transient Analysis

tphl                =  1.33802e-09 targ=  3.44923e-09 trig=  2.11120e-09
tplh                =  1.44355e-09 targ=  2.37772e-08 trig=  2.23336e-08
i_vdd_avg           =  -3.88154e-06 from=  5.00000e-09 to=  1.10002e-07
power_avg_uw        =  6.30723e+00


Total analysis time (seconds) = 0.857656

Total elapsed time (seconds) = 0.937 

Total DRAM available = 16384.000 MB.
DRAM currently available =  136.969 MB.
Maximum ngspice program size =   12.578 MB.
Current ngspice program size =   11.688 MB.

