
Note: No compatibility mode selected!


Circuit: XOR2 seed characterization sample 4313008

Doing analysis at TEMP = 22.812400 and TNOM = 27.000000

Using SPARSE 1.3 as Direct Linear Solver

Initial Transient Solution
--------------------------

Node                                   Voltage
----                                   -------
vdd                                    1.78228
in                                           0
b                                      1.78228
abar                                   1.78228
bbar                                3.8855e-09
out                                    1.78228
vb#branch                                    0
vin#branch                         1.80639e-12
vdd#branch                        -1.07782e-11

 Reference value :  2.25392e-08
 Reference value :  5.35892e-08
 Reference value :  8.96292e-08
No. of Data Rows : 60044

  Measurements for Transient Analysis

tphl                =  6.81448e-10 targ=  2.84756e-09 trig=  2.16611e-09
tplh                =  7.21600e-10 targ=  2.32199e-08 trig=  2.24983e-08
i_vdd_avg           =  -4.20216e-06 from=  5.00000e-09 to=  1.10001e-07
power_avg_uw        =  7.48943e+00


Total analysis time (seconds) = 0.859575

Total elapsed time (seconds) = 0.938 

Total DRAM available = 16384.000 MB.
DRAM currently available =   75.719 MB.
Maximum ngspice program size =   12.562 MB.
Current ngspice program size =   11.969 MB.

