
Note: No compatibility mode selected!


Circuit: INV seed characterization sample 4313009

Doing analysis at TEMP = 41.449700 and TNOM = 27.000000

Using SPARSE 1.3 as Direct Linear Solver

Initial Transient Solution
--------------------------

Node                                   Voltage
----                                   -------
vdd                                    1.64729
in                                           0
out                                    1.64729
vin#branch                                   0
vdd#branch                        -1.73723e-12

 Reference value :  6.59112e-08
No. of Data Rows : 60047

  Measurements for Transient Analysis

tphl                =  1.18992e-10 targ=  2.20853e-09 trig=  2.08954e-09
tplh                =  1.32678e-10 targ=  2.24013e-08 trig=  2.22686e-08
i_vdd_avg           =  -8.04446e-07 from=  5.00000e-09 to=  1.10001e-07
power_avg_uw        =  1.32516e+00


Total analysis time (seconds) = 0.306926

Total elapsed time (seconds) = 0.385 

Total DRAM available = 16384.000 MB.
DRAM currently available =   98.016 MB.
Maximum ngspice program size =   12.562 MB.
Current ngspice program size =   12.156 MB.

