
Note: No compatibility mode selected!


Circuit: XOR2 seed characterization sample 4313048

Doing analysis at TEMP = 60.142400 and TNOM = 27.000000

Using SPARSE 1.3 as Direct Linear Solver

Initial Transient Solution
--------------------------

Node                                   Voltage
----                                   -------
vdd                                    1.85966
in                                           0
b                                      1.85966
abar                                   1.85966
bbar                               1.90076e-09
out                                    1.85966
vb#branch                                    0
vin#branch                         2.68808e-12
vdd#branch                        -1.26704e-11

 Reference value :  2.36065e-08
 Reference value :  5.51447e-08
 Reference value :  8.70327e-08
No. of Data Rows : 60044

  Measurements for Transient Analysis

tphl                =  4.56959e-10 targ=  2.66882e-09 trig=  2.21186e-09
tplh                =  5.01708e-10 targ=  2.31373e-08 trig=  2.26356e-08
i_vdd_avg           =  -5.89558e-06 from=  5.00000e-09 to=  1.10000e-07
power_avg_uw        =  1.09638e+01


Total analysis time (seconds) = 0.886696

Total elapsed time (seconds) = 0.964 

Total DRAM available = 16384.000 MB.
DRAM currently available =   89.859 MB.
Maximum ngspice program size =   12.578 MB.
Current ngspice program size =   11.719 MB.

