
Note: No compatibility mode selected!


Circuit: NAND2 seed characterization sample 4313041

Doing analysis at TEMP = 40.680200 and TNOM = 27.000000

Using SPARSE 1.3 as Direct Linear Solver

Initial Transient Solution
--------------------------

Node                                   Voltage
----                                   -------
vdd                                     1.6632
in                                           0
out                                     1.6632
nmid                                  0.022894
vin#branch                                   0
vdd#branch                        -1.75475e-12

 Reference value :  4.53693e-08
 Reference value :  1.06330e-07
No. of Data Rows : 60044

  Measurements for Transient Analysis

tphl                =  4.77764e-10 targ=  2.61591e-09 trig=  2.13815e-09
tplh                =  2.23682e-10 targ=  2.26381e-08 trig=  2.24144e-08
i_vdd_avg           =  -5.73888e-06 from=  5.00000e-09 to=  1.10002e-07
power_avg_uw        =  9.54490e+00


Total analysis time (seconds) = 0.475299

Total elapsed time (seconds) = 0.549 

Total DRAM available = 16384.000 MB.
DRAM currently available =   97.188 MB.
Maximum ngspice program size =   12.594 MB.
Current ngspice program size =   11.656 MB.

