
Note: No compatibility mode selected!


Circuit: XOR2 seed characterization sample 4313043

Doing analysis at TEMP = 29.550000 and TNOM = 27.000000

Using SPARSE 1.3 as Direct Linear Solver

Initial Transient Solution
--------------------------

Node                                   Voltage
----                                   -------
vdd                                    1.73906
in                                           0
b                                      1.73906
abar                                   1.73906
bbar                               1.54946e-09
out                                    1.73906
vb#branch                                    0
vin#branch                         1.82298e-12
vdd#branch                        -1.06255e-11

 Reference value :  2.50993e-08
 Reference value :  5.97082e-08
 Reference value :  9.54202e-08
No. of Data Rows : 60047

  Measurements for Transient Analysis

tphl                =  2.39390e-10 targ=  2.42297e-09 trig=  2.18358e-09
tplh                =  3.48210e-10 targ=  2.28990e-08 trig=  2.25507e-08
i_vdd_avg           =  -2.14923e-06 from=  5.00000e-09 to=  1.10001e-07
power_avg_uw        =  3.73765e+00


Total analysis time (seconds) = 0.822914

Total elapsed time (seconds) = 0.900 

Total DRAM available = 16384.000 MB.
DRAM currently available =   97.188 MB.
Maximum ngspice program size =   12.578 MB.
Current ngspice program size =   11.734 MB.

