
Note: No compatibility mode selected!


Circuit: NOR2 seed characterization sample 4313040

Doing analysis at TEMP = 29.084600 and TNOM = 27.000000

Using SPARSE 1.3 as Direct Linear Solver

Initial Transient Solution
--------------------------

Node                                   Voltage
----                                   -------
vdd                                    1.75229
in                                           0
out                                    1.75229
pmid                                   1.75229
vin#branch                                   0
vdd#branch                         -3.7009e-12

 Reference value :  3.70742e-08
 Reference value :  9.06196e-08
No. of Data Rows : 60041

  Measurements for Transient Analysis

tphl                =  1.62085e-10 targ=  2.39739e-09 trig=  2.23530e-09
tplh                =  5.17315e-10 targ=  2.32232e-08 trig=  2.27059e-08
i_vdd_avg           =  -3.81283e-06 from=  5.00000e-09 to=  1.10000e-07
power_avg_uw        =  6.68119e+00


Total analysis time (seconds) = 0.533885

Total elapsed time (seconds) = 0.616 

Total DRAM available = 16384.000 MB.
DRAM currently available =   87.406 MB.
Maximum ngspice program size =   12.562 MB.
Current ngspice program size =   12.125 MB.

