
Note: No compatibility mode selected!


Circuit: INV seed characterization sample 4313003

Doing analysis at TEMP = 4.445140 and TNOM = 27.000000

Using SPARSE 1.3 as Direct Linear Solver

Initial Transient Solution
--------------------------

Node                                   Voltage
----                                   -------
vdd                                    1.68456
in                                           0
out                                    1.68456
vin#branch                                   0
vdd#branch                        -1.69567e-12

 Reference value :  6.29075e-08
No. of Data Rows : 60047

  Measurements for Transient Analysis

tphl                =  8.27633e-10 targ=  3.03226e-09 trig=  2.20463e-09
tplh                =  1.34686e-09 targ=  2.39607e-08 trig=  2.26139e-08
i_vdd_avg           =  -4.17933e-06 from=  5.00000e-09 to=  1.10002e-07
power_avg_uw        =  7.04034e+00


Total analysis time (seconds) = 0.334533

Total elapsed time (seconds) = 0.409 

Total DRAM available = 16384.000 MB.
DRAM currently available =  119.156 MB.
Maximum ngspice program size =   12.562 MB.
Current ngspice program size =   11.656 MB.

