
Note: No compatibility mode selected!


Circuit: NAND2 seed characterization sample 4313016

Doing analysis at TEMP = 85.512800 and TNOM = 27.000000

Using SPARSE 1.3 as Direct Linear Solver

Initial Transient Solution
--------------------------

Node                                   Voltage
----                                   -------
vdd                                     1.6376
in                                           0
out                                     1.6376
nmid                                 0.0434449
vin#branch                                   0
vdd#branch                        -2.38273e-12

 Reference value :  3.90296e-08
 Reference value :  9.47673e-08
No. of Data Rows : 60044

  Measurements for Transient Analysis

tphl                =  5.92322e-10 targ=  2.62548e-09 trig=  2.03316e-09
tplh                =  1.90334e-10 targ=  2.22898e-08 trig=  2.20995e-08
i_vdd_avg           =  -5.04376e-06 from=  5.00000e-09 to=  1.10002e-07
power_avg_uw        =  8.25966e+00


Total analysis time (seconds) = 0.515722

Total elapsed time (seconds) = 0.596 

Total DRAM available = 16384.000 MB.
DRAM currently available =  100.766 MB.
Maximum ngspice program size =   13.172 MB.
Current ngspice program size =   12.859 MB.

