
Note: No compatibility mode selected!


Circuit: NAND2 seed characterization sample 4313020

Doing analysis at TEMP = 96.395300 and TNOM = 27.000000

Using SPARSE 1.3 as Direct Linear Solver

Initial Transient Solution
--------------------------

Node                                   Voltage
----                                   -------
vdd                                    1.75617
in                                           0
out                                    1.75617
nmid                                 0.0452498
vin#branch                                   0
vdd#branch                          -2.404e-12

 Reference value :  4.11133e-08
 Reference value :  9.61801e-08
No. of Data Rows : 60047

  Measurements for Transient Analysis

tphl                =  8.36885e-10 targ=  2.91846e-09 trig=  2.08157e-09
tplh                =  3.01381e-10 targ=  2.25461e-08 trig=  2.22447e-08
i_vdd_avg           =  -4.14085e-06 from=  5.00000e-09 to=  1.10001e-07
power_avg_uw        =  7.27203e+00


Total analysis time (seconds) = 0.5281

Total elapsed time (seconds) = 0.604 

Total DRAM available = 16384.000 MB.
DRAM currently available =  111.469 MB.
Maximum ngspice program size =   12.562 MB.
Current ngspice program size =   12.016 MB.

