
Note: No compatibility mode selected!


Circuit: XOR2 seed characterization sample 4313004

Doing analysis at TEMP = 55.995200 and TNOM = 27.000000

Using SPARSE 1.3 as Direct Linear Solver

Initial Transient Solution
--------------------------

Node                                   Voltage
----                                   -------
vdd                                    1.66503
in                                           0
b                                      1.66503
abar                                   1.66503
bbar                               3.34977e-09
out                                    1.66503
vb#branch                                    0
vin#branch                         1.95031e-12
vdd#branch                        -1.05334e-11

 Reference value :  2.29839e-08
 Reference value :  5.52654e-08
 Reference value :  8.98214e-08
No. of Data Rows : 60044

  Measurements for Transient Analysis

tphl                =  7.15240e-10 targ=  2.74546e-09 trig=  2.03022e-09
tplh                =  1.00698e-09 targ=  2.30976e-08 trig=  2.20906e-08
i_vdd_avg           =  -4.96641e-06 from=  5.00000e-09 to=  1.10002e-07
power_avg_uw        =  8.26922e+00


Total analysis time (seconds) = 0.860203

Total elapsed time (seconds) = 0.939 

Total DRAM available = 16384.000 MB.
DRAM currently available =  144.141 MB.
Maximum ngspice program size =   12.609 MB.
Current ngspice program size =   11.969 MB.

