
Note: No compatibility mode selected!


Circuit: XOR2 seed characterization sample 4313033

Doing analysis at TEMP = 50.955700 and TNOM = 27.000000

Using SPARSE 1.3 as Direct Linear Solver

Initial Transient Solution
--------------------------

Node                                   Voltage
----                                   -------
vdd                                    1.75197
in                                           0
b                                      1.75197
abar                                   1.75197
bbar                               2.13592e-09
out                                    1.75197
vb#branch                                    0
vin#branch                         2.08849e-12
vdd#branch                        -1.11497e-11

 Reference value :  2.34549e-08
 Reference value :  5.52660e-08
 Reference value :  8.64340e-08
No. of Data Rows : 60041

  Measurements for Transient Analysis

tphl                =  6.26601e-10 targ=  2.86008e-09 trig=  2.23348e-09
tplh                =  7.39969e-10 targ=  2.34404e-08 trig=  2.27004e-08
i_vdd_avg           =  -6.41001e-06 from=  5.00000e-09 to=  1.10001e-07
power_avg_uw        =  1.12301e+01


Total analysis time (seconds) = 0.912638

Total elapsed time (seconds) = 0.991 

Total DRAM available = 16384.000 MB.
DRAM currently available =   86.719 MB.
Maximum ngspice program size =   12.578 MB.
Current ngspice program size =   11.844 MB.

