
Note: No compatibility mode selected!


Circuit: XOR2 seed characterization sample 4313017

Doing analysis at TEMP = 85.059900 and TNOM = 27.000000

Using SPARSE 1.3 as Direct Linear Solver

Initial Transient Solution
--------------------------

Node                                   Voltage
----                                   -------
vdd                                    1.92553
in                                           0
b                                      1.92553
abar                                   1.92553
bbar                               6.12854e-09
out                                    1.92553
vb#branch                                    0
vin#branch                         3.25206e-12
vdd#branch                        -1.39873e-11

 Reference value :  2.28127e-08
 Reference value :  5.45078e-08
 Reference value :  8.63958e-08
No. of Data Rows : 60041

  Measurements for Transient Analysis

tphl                =  9.40522e-10 targ=  3.01594e-09 trig=  2.07542e-09
tplh                =  9.53129e-10 targ=  2.31794e-08 trig=  2.22263e-08
i_vdd_avg           =  -5.79260e-06 from=  5.00000e-09 to=  1.10001e-07
power_avg_uw        =  1.11538e+01


Total analysis time (seconds) = 0.877918

Total elapsed time (seconds) = 0.958 

Total DRAM available = 16384.000 MB.
DRAM currently available =  109.750 MB.
Maximum ngspice program size =   12.859 MB.
Current ngspice program size =   12.859 MB.

