
Note: No compatibility mode selected!


Circuit: NOR2 seed characterization sample 4313001

Doing analysis at TEMP = -4.423680 and TNOM = 27.000000

Using SPARSE 1.3 as Direct Linear Solver

Initial Transient Solution
--------------------------

Node                                   Voltage
----                                   -------
vdd                                    1.64286
in                                           0
out                                    1.64286
pmid                                   1.64286
vin#branch                                   0
vdd#branch                        -3.30648e-12

 Reference value :  4.05864e-08
 Reference value :  9.64287e-08
No. of Data Rows : 60044

  Measurements for Transient Analysis

tphl                =  6.11578e-10 targ=  2.78842e-09 trig=  2.17684e-09
tplh                =  3.09114e-09 targ=  2.56217e-08 trig=  2.25305e-08
i_vdd_avg           =  -4.40613e-06 from=  5.00000e-09 to=  1.10000e-07
power_avg_uw        =  7.23866e+00


Total analysis time (seconds) = 0.514756

Total elapsed time (seconds) = 0.591 

Total DRAM available = 16384.000 MB.
DRAM currently available =  130.188 MB.
Maximum ngspice program size =   12.562 MB.
Current ngspice program size =   11.656 MB.

