
Note: No compatibility mode selected!


Circuit: INV seed characterization sample 4313042

Doing analysis at TEMP = 18.851800 and TNOM = 27.000000

Using SPARSE 1.3 as Direct Linear Solver

Initial Transient Solution
--------------------------

Node                                   Voltage
----                                   -------
vdd                                     1.7737
in                                           0
out                                     1.7737
vin#branch                                   0
vdd#branch                        -1.79393e-12

 Reference value :  6.98574e-08
No. of Data Rows : 60047

  Measurements for Transient Analysis

tphl                =  2.68324e-10 targ=  2.29392e-09 trig=  2.02559e-09
tplh                =  4.51164e-10 targ=  2.25279e-08 trig=  2.20768e-08
i_vdd_avg           =  -3.34669e-06 from=  5.00000e-09 to=  1.10001e-07
power_avg_uw        =  5.93602e+00


Total analysis time (seconds) = 0.299418

Total elapsed time (seconds) = 0.375 

Total DRAM available = 16384.000 MB.
DRAM currently available =   83.344 MB.
Maximum ngspice program size =   12.562 MB.
Current ngspice program size =   11.906 MB.

