
Note: No compatibility mode selected!


Circuit: XOR2 seed characterization sample 4313036

Doing analysis at TEMP = 43.455700 and TNOM = 27.000000

Using SPARSE 1.3 as Direct Linear Solver

Initial Transient Solution
--------------------------

Node                                   Voltage
----                                   -------
vdd                                    1.81076
in                                           0
b                                      1.81076
abar                                   1.81076
bbar                               4.80909e-09
out                                    1.81076
vb#branch                                    0
vin#branch                         1.88974e-12
vdd#branch                         -1.1046e-11

 Reference value :  2.34958e-08
 Reference value :  5.52834e-08
 Reference value :  8.65974e-08
No. of Data Rows : 60044

  Measurements for Transient Analysis

tphl                =  5.64006e-10 targ=  2.75721e-09 trig=  2.19320e-09
tplh                =  7.35913e-10 targ=  2.33155e-08 trig=  2.25796e-08
i_vdd_avg           =  -2.82212e-06 from=  5.00000e-09 to=  1.10002e-07
power_avg_uw        =  5.11018e+00


Total analysis time (seconds) = 0.911758

Total elapsed time (seconds) = 0.989 

Total DRAM available = 16384.000 MB.
DRAM currently available =   91.109 MB.
Maximum ngspice program size =   12.562 MB.
Current ngspice program size =   11.891 MB.

