
Note: No compatibility mode selected!


Circuit: INV seed characterization sample 4313011

Doing analysis at TEMP = 8.258230 and TNOM = 27.000000

Using SPARSE 1.3 as Direct Linear Solver

Initial Transient Solution
--------------------------

Node                                   Voltage
----                                   -------
vdd                                    1.95955
in                                           0
out                                    1.95955
vin#branch                                   0
vdd#branch                         -1.9718e-12

 Reference value :  6.67364e-08
No. of Data Rows : 60041

  Measurements for Transient Analysis

tphl                =  1.38397e-10 targ=  2.28975e-09 trig=  2.15136e-09
tplh                =  1.66974e-10 targ=  2.26210e-08 trig=  2.24541e-08
i_vdd_avg           =  -6.13848e-07 from=  5.00000e-09 to=  1.10000e-07
power_avg_uw        =  1.20287e+00


Total analysis time (seconds) = 0.307029

Total elapsed time (seconds) = 0.383 

Total DRAM available = 16384.000 MB.
DRAM currently available =   98.016 MB.
Maximum ngspice program size =   12.562 MB.
Current ngspice program size =   11.812 MB.

