
Note: Compatibility modes selected: hs a


Circuit: SKY130 library cell nor2_1 A_to_Y__B=0

option SCALE: Scale is set to 1e-06 for instance and model parameters
Doing analysis at TEMP = 41.394836 and TNOM = 27.000000

Using KLU as Direct Linear Solver
 Reference value :  4.75655e-08
 Reference value :  1.85368e-07
 Reference value :  3.27864e-07
No. of Data Rows : 68034

  Measurements for Transient Analysis

tphl                =  5.01018e-10 targ=  2.55925e-08 trig=  2.50915e-08
tplh                =  1.21106e-09 targ=  9.84856e-08 trig=  9.72746e-08
i_vdd_avg           =  -6.13025e-07 from=  1.00000e-08 to=  3.30004e-07
power_avg_uw        =  1.11064e+00


Total analysis time (seconds) = 0.613276

Total elapsed time (seconds) = 0.772 

Total DRAM available = 16384.000 MB.
DRAM currently available =   98.000 MB.
Maximum ngspice program size =   26.422 MB.
Current ngspice program size =   26.422 MB.

