
Note: Compatibility modes selected: hs a


Circuit: SKY130 library cell nand2_1 A_to_Y__B=1

option SCALE: Scale is set to 1e-06 for instance and model parameters
Doing analysis at TEMP = -37.859789 and TNOM = 27.000000

Using KLU as Direct Linear Solver
 Reference value :  5.81494e-08
 Reference value :  2.06599e-07
No. of Data Rows : 68030

  Measurements for Transient Analysis

tphl                =  9.14839e-10 targ=  2.64808e-08 trig=  2.55659e-08
tplh                =  1.60424e-09 targ=  1.00302e-07 trig=  9.86978e-08
i_vdd_avg           =  -1.17550e-06 from=  1.00000e-08 to=  3.30001e-07
power_avg_uw        =  2.20869e+00


Total analysis time (seconds) = 0.576853

Total elapsed time (seconds) = 0.721 

Total DRAM available = 16384.000 MB.
DRAM currently available =   96.094 MB.
Maximum ngspice program size =   26.328 MB.
Current ngspice program size =   26.328 MB.

