
Note: Compatibility modes selected: hs a


Circuit: SKY130 library cell nand3_1 A_to_Y__B=1,C=1

option SCALE: Scale is set to 1e-06 for instance and model parameters
Doing analysis at TEMP = 4.962768 and TNOM = 27.000000

Using KLU as Direct Linear Solver
 Reference value :  3.91005e-08
 Reference value :  1.47903e-07
 Reference value :  2.57985e-07
No. of Data Rows : 68034

  Measurements for Transient Analysis

tphl                =  1.65716e-09 targ=  3.13886e-08 trig=  2.97315e-08
tplh                =  3.24116e-09 targ=  1.14436e-07 trig=  1.11194e-07
i_vdd_avg           =  -1.32007e-06 from=  1.00000e-08 to=  3.30003e-07
power_avg_uw        =  2.51686e+00


Total analysis time (seconds) = 0.796577

Total elapsed time (seconds) = 0.942 

Total DRAM available = 16384.000 MB.
DRAM currently available =   98.000 MB.
Maximum ngspice program size =   25.578 MB.
Current ngspice program size =   25.578 MB.

