
Note: Compatibility modes selected: hs a


Circuit: SKY130 library cell mux2_1 A0_to_X__A1=0,S=0

option SCALE: Scale is set to 1e-06 for instance and model parameters
Doing analysis at TEMP = -24.411334 and TNOM = 27.000000

Using KLU as Direct Linear Solver
 Reference value :  1.69164e-08
 Reference value :  7.65987e-08
 Reference value :  1.29270e-07
 Reference value :  1.89584e-07
 Reference value :  2.46319e-07
 Reference value :  3.01625e-07
No. of Data Rows : 68032

  Measurements for Transient Analysis

tplh                =  1.96382e-09 targ=  2.80594e-08 trig=  2.60956e-08
tphl                =  1.72422e-09 targ=  1.02011e-07 trig=  1.00287e-07
i_vdd_avg           =  -2.17125e-06 from=  1.00000e-08 to=  3.30005e-07
power_avg_uw        =  3.68421e+00


Total analysis time (seconds) = 1.52839

Total elapsed time (seconds) = 1.701 

Total DRAM available = 16384.000 MB.
DRAM currently available =   92.250 MB.
Maximum ngspice program size =   25.297 MB.
Current ngspice program size =   25.297 MB.

