
Note: Compatibility modes selected: hs a


Circuit: SKY130 library cell xor2_4 A_to_X__B=0

option SCALE: Scale is set to 1e-06 for instance and model parameters
Doing analysis at TEMP = 97.249116 and TNOM = 27.000000

Using KLU as Direct Linear Solver
 Reference value :  4.45640e-09
 Reference value :  2.20414e-08
 Reference value :  3.91537e-08
 Reference value :  5.73937e-08
 Reference value :  7.35487e-08
 Reference value :  9.06987e-08
 Reference value :  1.07710e-07
 Reference value :  1.25060e-07
 Reference value :  1.42815e-07
 Reference value :  1.59950e-07
 Reference value :  1.77495e-07
 Reference value :  1.94544e-07
 Reference value :  2.10744e-07
 Reference value :  2.26854e-07
 Reference value :  2.41889e-07
 Reference value :  2.57259e-07
 Reference value :  2.72535e-07
 Reference value :  2.90150e-07
 Reference value :  3.07645e-07
 Reference value :  3.24840e-07
No. of Data Rows : 68032

  Measurements for Transient Analysis

tplh                =  8.19077e-10 targ=  2.59472e-08 trig=  2.51281e-08
tphl                =  5.67275e-10 targ=  9.79515e-08 trig=  9.73842e-08
i_vdd_avg           =  -2.56404e-06 from=  1.00000e-08 to=  3.30005e-07
power_avg_uw        =  4.43753e+00


Total analysis time (seconds) = 5.1667

Total elapsed time (seconds) = 5.344 

Total DRAM available = 16384.000 MB.
DRAM currently available =   97.312 MB.
Maximum ngspice program size =   26.078 MB.
Current ngspice program size =   26.078 MB.

