
Note: Compatibility modes selected: hs a


Circuit: SKY130 library cell inv_4 A_to_Y

option SCALE: Scale is set to 1e-06 for instance and model parameters
Doing analysis at TEMP = 77.391565 and TNOM = 27.000000

Using KLU as Direct Linear Solver
 Reference value :  3.19984e-08
 Reference value :  1.15349e-07
 Reference value :  1.93033e-07
 Reference value :  2.82309e-07
No. of Data Rows : 68032

  Measurements for Transient Analysis

tphl                =  1.34376e-10 targ=  2.41673e-08 trig=  2.40329e-08
tplh                =  2.64917e-10 targ=  9.43637e-08 trig=  9.40988e-08
i_vdd_avg           =  -1.58520e-06 from=  1.00000e-08 to=  3.30004e-07
power_avg_uw        =  2.73985e+00


Total analysis time (seconds) = 1.0342

Total elapsed time (seconds) = 1.188 

Total DRAM available = 16384.000 MB.
DRAM currently available =  110.562 MB.
Maximum ngspice program size =   24.625 MB.
Current ngspice program size =   24.625 MB.

