
Note: Compatibility modes selected: hs a


Circuit: SKY130 library cell nand3_4 A_to_Y__B=1,C=1

option SCALE: Scale is set to 1e-06 for instance and model parameters
Doing analysis at TEMP = 1.659065 and TNOM = 27.000000

Using KLU as Direct Linear Solver
 Reference value :  8.23140e-09
 Reference value :  3.62404e-08
 Reference value :  6.45204e-08
 Reference value :  9.41304e-08
 Reference value :  1.23463e-07
 Reference value :  1.52028e-07
 Reference value :  1.82678e-07
 Reference value :  2.10245e-07
 Reference value :  2.41150e-07
 Reference value :  2.75278e-07
 Reference value :  3.13248e-07
No. of Data Rows : 68034

  Measurements for Transient Analysis

tphl                =  8.19752e-10 targ=  2.93162e-08 trig=  2.84965e-08
tplh                =  2.10483e-09 targ=  1.09594e-07 trig=  1.07489e-07
i_vdd_avg           =  -1.45689e-06 from=  1.00000e-08 to=  3.30003e-07
power_avg_uw        =  2.54023e+00


Total analysis time (seconds) = 2.76556

Total elapsed time (seconds) = 2.942 

Total DRAM available = 16384.000 MB.
DRAM currently available =  130.422 MB.
Maximum ngspice program size =   27.250 MB.
Current ngspice program size =   27.250 MB.

