
Note: Compatibility modes selected: hs a


Circuit: SKY130 library cell nor2_4 A_to_Y__B=0

option SCALE: Scale is set to 1e-06 for instance and model parameters
Doing analysis at TEMP = 62.168276 and TNOM = 27.000000

Using KLU as Direct Linear Solver
 Reference value :  1.28114e-08
 Reference value :  5.57646e-08
 Reference value :  1.02740e-07
 Reference value :  1.49457e-07
 Reference value :  1.95365e-07
 Reference value :  2.37755e-07
 Reference value :  2.82647e-07
 Reference value :  3.26777e-07
No. of Data Rows : 68030

  Measurements for Transient Analysis

tphl                =  6.23487e-10 targ=  2.70270e-08 trig=  2.64036e-08
tplh                =  1.64214e-09 targ=  1.02853e-07 trig=  1.01211e-07
i_vdd_avg           =  -2.44847e-06 from=  1.00000e-08 to=  3.30002e-07
power_avg_uw        =  4.43562e+00


Total analysis time (seconds) = 1.93652

Total elapsed time (seconds) = 2.094 

Total DRAM available = 16384.000 MB.
DRAM currently available =   98.641 MB.
Maximum ngspice program size =   26.891 MB.
Current ngspice program size =   26.891 MB.

