
Note: Compatibility modes selected: hs a


Circuit: SKY130 library cell oai21_4 A1_to_Y__A2=0,B1=1

option SCALE: Scale is set to 1e-06 for instance and model parameters
Doing analysis at TEMP = 72.885218 and TNOM = 27.000000

Using KLU as Direct Linear Solver
 Reference value :  9.71140e-09
 Reference value :  3.84291e-08
 Reference value :  6.92391e-08
 Reference value :  9.77091e-08
 Reference value :  1.29811e-07
 Reference value :  1.58806e-07
 Reference value :  1.86503e-07
 Reference value :  2.13654e-07
 Reference value :  2.45339e-07
 Reference value :  2.75511e-07
 Reference value :  3.04071e-07
 Reference value :  3.34071e-07
No. of Data Rows : 68030

  Measurements for Transient Analysis

tphl                =  -7.38381e-11 targ=  2.80995e-08 trig=  2.81733e-08
tplh                =  8.29787e-10 targ=  1.07350e-07 trig=  1.06520e-07
i_vdd_avg           =  -4.54973e-07 from=  1.00000e-08 to=  3.30001e-07
power_avg_uw        =  7.84115e-01


Total analysis time (seconds) = 2.93554

Total elapsed time (seconds) = 3.089 

Total DRAM available = 16384.000 MB.
DRAM currently available =  101.547 MB.
Maximum ngspice program size =   27.203 MB.
Current ngspice program size =   27.203 MB.

