
Note: Compatibility modes selected: hs a


Circuit: SKY130 library cell xor2_1 A_to_X__B=0

option SCALE: Scale is set to 1e-06 for instance and model parameters
Doing analysis at TEMP = -22.868152 and TNOM = 27.000000

Using KLU as Direct Linear Solver
 Reference value :  1.83414e-08
 Reference value :  8.60092e-08
 Reference value :  1.50396e-07
 Reference value :  2.14644e-07
 Reference value :  2.76976e-07
No. of Data Rows : 68030

  Measurements for Transient Analysis

tplh                =  1.07517e-09 targ=  2.65360e-08 trig=  2.54609e-08
tphl                =  9.21482e-10 targ=  9.93041e-08 trig=  9.83826e-08
i_vdd_avg           =  -5.34551e-07 from=  1.00000e-08 to=  3.30001e-07
power_avg_uw        =  8.86249e-01


Total analysis time (seconds) = 1.38289

Total elapsed time (seconds) = 1.541 

Total DRAM available = 16384.000 MB.
DRAM currently available =   77.109 MB.
Maximum ngspice program size =   25.156 MB.
Current ngspice program size =   25.156 MB.

