
Note: Compatibility modes selected: hs a


Circuit: SKY130 library cell aoi21_4 A1_to_Y__A2=1,B1=0

option SCALE: Scale is set to 1e-06 for instance and model parameters
Doing analysis at TEMP = 103.813270 and TNOM = 27.000000

Using KLU as Direct Linear Solver
 Reference value :  1.08614e-08
 Reference value :  4.07221e-08
 Reference value :  6.90671e-08
 Reference value :  9.93021e-08
 Reference value :  1.29022e-07
 Reference value :  1.57197e-07
 Reference value :  1.86917e-07
 Reference value :  2.15127e-07
 Reference value :  2.43952e-07
 Reference value :  2.71172e-07
 Reference value :  2.99012e-07
 Reference value :  3.25782e-07
No. of Data Rows : 68032

  Measurements for Transient Analysis

tphl                =  5.04523e-10 targ=  2.59568e-08 trig=  2.54523e-08
tplh                =  9.01178e-10 targ=  9.92581e-08 trig=  9.83570e-08
i_vdd_avg           =  -1.29031e-06 from=  1.00000e-08 to=  3.30002e-07
power_avg_uw        =  2.25245e+00


Total analysis time (seconds) = 3.06823

Total elapsed time (seconds) = 3.216 

Total DRAM available = 16384.000 MB.
DRAM currently available =  112.266 MB.
Maximum ngspice program size =   26.422 MB.
Current ngspice program size =   26.422 MB.

