
Note: Compatibility modes selected: hs a


Circuit: SKY130 library cell inv_1 A_to_Y

option SCALE: Scale is set to 1e-06 for instance and model parameters
Doing analysis at TEMP = 45.752316 and TNOM = 27.000000

Using KLU as Direct Linear Solver
 Reference value :  6.98325e-08
 Reference value :  2.80717e-07
No. of Data Rows : 68032

  Measurements for Transient Analysis

tphl                =  1.11441e-09 targ=  2.84994e-08 trig=  2.73850e-08
tplh                =  2.38555e-09 targ=  1.06540e-07 trig=  1.04155e-07
i_vdd_avg           =  -1.39048e-06 from=  1.00000e-08 to=  3.30002e-07
power_avg_uw        =  2.60033e+00


Total analysis time (seconds) = 0.405297

Total elapsed time (seconds) = 0.564 

Total DRAM available = 16384.000 MB.
DRAM currently available =   97.312 MB.
Maximum ngspice program size =   26.734 MB.
Current ngspice program size =   26.734 MB.

