
Note: Compatibility modes selected: hs a


Circuit: SKY130 library cell oai21_1 A1_to_Y__A2=0,B1=1

option SCALE: Scale is set to 1e-06 for instance and model parameters
Doing analysis at TEMP = -30.396596 and TNOM = 27.000000

Using KLU as Direct Linear Solver
 Reference value :  3.36910e-08
 Reference value :  1.40254e-07
 Reference value :  2.34871e-07
 Reference value :  3.31679e-07
No. of Data Rows : 68034

  Measurements for Transient Analysis

tphl                =  6.48813e-11 targ=  2.66716e-08 trig=  2.66067e-08
tplh                =  9.72226e-10 targ=  1.02792e-07 trig=  1.01820e-07
i_vdd_avg           =  -4.32123e-08 from=  1.00000e-08 to=  3.30004e-07
power_avg_uw        =  7.45559e-02


Total analysis time (seconds) = 0.862385

Total elapsed time (seconds) = 1.022 

Total DRAM available = 16384.000 MB.
DRAM currently available =   71.391 MB.
Maximum ngspice program size =   25.891 MB.
Current ngspice program size =   25.891 MB.

