
Note: Compatibility modes selected: hs a


Circuit: SKY130 library cell nand2_1 A_to_Y__B=1

option SCALE: Scale is set to 1e-06 for instance and model parameters
Doing analysis at TEMP = 90.765791 and TNOM = 27.000000

Using KLU as Direct Linear Solver
 Reference value :  5.65893e-08
 Reference value :  1.97004e-07
No. of Data Rows : 68030

  Measurements for Transient Analysis

tphl                =  2.01940e-09 targ=  2.96353e-08 trig=  2.76159e-08
tplh                =  2.83626e-09 targ=  1.07684e-07 trig=  1.04848e-07
i_vdd_avg           =  -1.54765e-06 from=  1.00000e-08 to=  3.30001e-07
power_avg_uw        =  2.65588e+00


Total analysis time (seconds) = 0.592403

Total elapsed time (seconds) = 0.741 

Total DRAM available = 16384.000 MB.
DRAM currently available =  101.547 MB.
Maximum ngspice program size =   25.781 MB.
Current ngspice program size =   25.781 MB.

