
Note: Compatibility modes selected: hs a


Circuit: SKY130 library cell xor2_1 A_to_X__B=0

option SCALE: Scale is set to 1e-06 for instance and model parameters
Doing analysis at TEMP = 80.101814 and TNOM = 27.000000

Using KLU as Direct Linear Solver
 Reference value :  2.62494e-08
 Reference value :  9.51594e-08
 Reference value :  1.61476e-07
 Reference value :  2.25369e-07
 Reference value :  2.89741e-07
No. of Data Rows : 68030

  Measurements for Transient Analysis

tplh                =  3.78691e-10 targ=  2.52546e-08 trig=  2.48759e-08
tphl                =  4.11976e-10 targ=  9.70398e-08 trig=  9.66278e-08
i_vdd_avg           =  -2.84810e-07 from=  1.00000e-08 to=  3.30001e-07
power_avg_uw        =  4.98310e-01


Total analysis time (seconds) = 1.29787

Total elapsed time (seconds) = 1.457 

Total DRAM available = 16384.000 MB.
DRAM currently available =  191.375 MB.
Maximum ngspice program size =   26.688 MB.
Current ngspice program size =   26.688 MB.

