
Note: Compatibility modes selected: hs a


Circuit: SKY130 library cell inv_1 A_to_Y

option SCALE: Scale is set to 1e-06 for instance and model parameters
Doing analysis at TEMP = 19.620806 and TNOM = 27.000000

Using KLU as Direct Linear Solver
 Reference value :  9.55549e-08
No. of Data Rows : 68030

  Measurements for Transient Analysis

tphl                =  1.78819e-09 targ=  3.11444e-08 trig=  2.93562e-08
tplh                =  3.92283e-09 targ=  1.13992e-07 trig=  1.10069e-07
i_vdd_avg           =  -1.06669e-06 from=  1.00000e-08 to=  3.30002e-07
power_avg_uw        =  1.74553e+00


Total analysis time (seconds) = 0.329852

Total elapsed time (seconds) = 0.493 

Total DRAM available = 16384.000 MB.
DRAM currently available =  191.375 MB.
Maximum ngspice program size =   28.016 MB.
Current ngspice program size =   28.016 MB.

