
Note: Compatibility modes selected: hs a


Circuit: SKY130 library cell xor2_4 A_to_X__B=0

option SCALE: Scale is set to 1e-06 for instance and model parameters
Doing analysis at TEMP = -31.139722 and TNOM = 27.000000

Using KLU as Direct Linear Solver
 Reference value :  2.87640e-09
 Reference value :  2.03264e-08
 Reference value :  3.80683e-08
 Reference value :  5.59683e-08
 Reference value :  7.33733e-08
 Reference value :  9.09583e-08
 Reference value :  1.09543e-07
 Reference value :  1.25384e-07
 Reference value :  1.44679e-07
 Reference value :  1.62079e-07
 Reference value :  1.78809e-07
 Reference value :  1.96538e-07
 Reference value :  2.13133e-07
 Reference value :  2.30748e-07
 Reference value :  2.48278e-07
 Reference value :  2.66708e-07
 Reference value :  2.84029e-07
 Reference value :  3.00799e-07
 Reference value :  3.20164e-07
 Reference value :  3.37599e-07
No. of Data Rows : 68032

  Measurements for Transient Analysis

tplh                =  3.54875e-10 targ=  2.89903e-08 trig=  2.86354e-08
tphl                =  1.41755e-09 targ=  1.09324e-07 trig=  1.07906e-07
i_vdd_avg           =  -2.14140e-06 from=  1.00000e-08 to=  3.30004e-07
power_avg_uw        =  3.93739e+00


Total analysis time (seconds) = 4.9113

Total elapsed time (seconds) = 5.102 

Total DRAM available = 16384.000 MB.
DRAM currently available =   94.281 MB.
Maximum ngspice program size =   29.625 MB.
Current ngspice program size =   29.625 MB.

