
Note: Compatibility modes selected: hs a


Circuit: SKY130 library cell aoi21_4 A1_to_Y__A2=1,B1=0

option SCALE: Scale is set to 1e-06 for instance and model parameters
Doing analysis at TEMP = 10.051890 and TNOM = 27.000000

Using KLU as Direct Linear Solver
 Reference value :  6.25140e-09
 Reference value :  3.42236e-08
 Reference value :  6.22736e-08
 Reference value :  8.91736e-08
 Reference value :  1.19835e-07
 Reference value :  1.47600e-07
 Reference value :  1.74665e-07
 Reference value :  2.03099e-07
 Reference value :  2.29444e-07
 Reference value :  2.57949e-07
 Reference value :  2.85510e-07
 Reference value :  3.13645e-07
No. of Data Rows : 68032

  Measurements for Transient Analysis

tphl                =  7.75724e-10 targ=  2.87263e-08 trig=  2.79505e-08
tplh                =  2.27032e-09 targ=  1.08122e-07 trig=  1.05852e-07
i_vdd_avg           =  -1.51349e-06 from=  1.00000e-08 to=  3.30005e-07
power_avg_uw        =  2.60851e+00


Total analysis time (seconds) = 3.10803

Total elapsed time (seconds) = 3.285 

Total DRAM available = 16384.000 MB.
DRAM currently available =  105.531 MB.
Maximum ngspice program size =   28.391 MB.
Current ngspice program size =   28.391 MB.

