
Note: Compatibility modes selected: hs a


Circuit: SKY130 library cell oai21_1 A1_to_Y__A2=0,B1=1

option SCALE: Scale is set to 1e-06 for instance and model parameters
Doing analysis at TEMP = 106.201710 and TNOM = 27.000000

Using KLU as Direct Linear Solver
 Reference value :  2.88875e-08
 Reference value :  1.34870e-07
 Reference value :  2.37801e-07
 Reference value :  3.36275e-07
No. of Data Rows : 68034

  Measurements for Transient Analysis

tphl                =  1.46931e-09 targ=  2.88486e-08 trig=  2.73793e-08
tplh                =  2.79992e-09 targ=  1.06938e-07 trig=  1.04138e-07
i_vdd_avg           =  -1.58032e-06 from=  1.00000e-08 to=  3.30005e-07
power_avg_uw        =  2.93983e+00


Total analysis time (seconds) = 0.858668

Total elapsed time (seconds) = 1.016 

Total DRAM available = 16384.000 MB.
DRAM currently available =   94.719 MB.
Maximum ngspice program size =   26.172 MB.
Current ngspice program size =   26.172 MB.

