
Note: Compatibility modes selected: hs a


Circuit: SKY130 library cell mux2_4 A0_to_X__A1=0,S=0

option SCALE: Scale is set to 1e-06 for instance and model parameters
Doing analysis at TEMP = -23.919429 and TNOM = 27.000000

Using KLU as Direct Linear Solver
 Reference value :  1.33864e-08
 Reference value :  4.86499e-08
 Reference value :  8.78749e-08
 Reference value :  1.23627e-07
 Reference value :  1.60072e-07
 Reference value :  1.98255e-07
 Reference value :  2.35765e-07
 Reference value :  2.68920e-07
 Reference value :  3.05282e-07
No. of Data Rows : 68030

  Measurements for Transient Analysis

tplh                =  3.50521e-10 targ=  2.89892e-08 trig=  2.86387e-08
tphl                =  1.74458e-09 targ=  1.09661e-07 trig=  1.07916e-07
i_vdd_avg           =  -2.06819e-06 from=  1.00000e-08 to=  3.30002e-07
power_avg_uw        =  3.93595e+00


Total analysis time (seconds) = 2.35638

Total elapsed time (seconds) = 2.515 

Total DRAM available = 16384.000 MB.
DRAM currently available =   98.000 MB.
Maximum ngspice program size =   25.391 MB.
Current ngspice program size =   25.391 MB.

