
Note: Compatibility modes selected: hs a


Circuit: SKY130 library cell aoi21_4 A1_to_Y__A2=1,B1=0

option SCALE: Scale is set to 1e-06 for instance and model parameters
Doing analysis at TEMP = 32.592104 and TNOM = 27.000000

Using KLU as Direct Linear Solver
 Reference value :  8.02140e-09
 Reference value :  3.71451e-08
 Reference value :  6.77701e-08
 Reference value :  9.75851e-08
 Reference value :  1.27298e-07
 Reference value :  1.57963e-07
 Reference value :  1.87668e-07
 Reference value :  2.18365e-07
 Reference value :  2.48425e-07
 Reference value :  2.79018e-07
 Reference value :  3.06128e-07
 Reference value :  3.35508e-07
No. of Data Rows : 68034

  Measurements for Transient Analysis

tphl                =  -2.58648e-10 targ=  2.93427e-08 trig=  2.96013e-08
tplh                =  1.22731e-09 targ=  1.12031e-07 trig=  1.10804e-07
i_vdd_avg           =  -1.01528e-06 from=  1.00000e-08 to=  3.30003e-07
power_avg_uw        =  1.93880e+00


Total analysis time (seconds) = 2.91791

Total elapsed time (seconds) = 3.084 

Total DRAM available = 16384.000 MB.
DRAM currently available =  107.797 MB.
Maximum ngspice program size =   25.281 MB.
Current ngspice program size =   25.281 MB.

