
Note: Compatibility modes selected: hs a


Circuit: SKY130 library cell mux2_4 A0_to_X__A1=0,S=0

option SCALE: Scale is set to 1e-06 for instance and model parameters
Doing analysis at TEMP = 63.725853 and TNOM = 27.000000

Using KLU as Direct Linear Solver
 Reference value :  1.31014e-08
 Reference value :  5.16597e-08
 Reference value :  9.23997e-08
 Reference value :  1.29857e-07
 Reference value :  1.69332e-07
 Reference value :  2.08530e-07
 Reference value :  2.48275e-07
 Reference value :  2.88257e-07
 Reference value :  3.27922e-07
No. of Data Rows : 68030

  Measurements for Transient Analysis

tplh                =  4.97345e-10 targ=  2.49759e-08 trig=  2.44786e-08
tphl                =  5.77390e-10 targ=  9.60131e-08 trig=  9.54357e-08
i_vdd_avg           =  -2.23102e-06 from=  1.00000e-08 to=  3.30002e-07
power_avg_uw        =  4.11357e+00


Total analysis time (seconds) = 2.18903

Total elapsed time (seconds) = 2.346 

Total DRAM available = 16384.000 MB.
DRAM currently available =   96.828 MB.
Maximum ngspice program size =   26.000 MB.
Current ngspice program size =   26.000 MB.

