
Note: Compatibility modes selected: hs a


Circuit: SKY130 library cell xor2_4 A_to_X__B=0

option SCALE: Scale is set to 1e-06 for instance and model parameters
Doing analysis at TEMP = 6.157190 and TNOM = 27.000000

Using KLU as Direct Linear Solver
 Reference value :  5.48640e-09
 Reference value :  2.48001e-08
 Reference value :  4.34151e-08
 Reference value :  6.14651e-08
 Reference value :  7.85801e-08
 Reference value :  9.47228e-08
 Reference value :  1.13948e-07
 Reference value :  1.31513e-07
 Reference value :  1.50973e-07
 Reference value :  1.69238e-07
 Reference value :  1.87150e-07
 Reference value :  2.05650e-07
 Reference value :  2.24470e-07
 Reference value :  2.42200e-07
 Reference value :  2.58758e-07
 Reference value :  2.75968e-07
 Reference value :  2.93863e-07
 Reference value :  3.13398e-07
 Reference value :  3.30328e-07
No. of Data Rows : 68034

  Measurements for Transient Analysis

tplh                =  6.55689e-10 targ=  2.48345e-08 trig=  2.41788e-08
tphl                =  3.18279e-10 targ=  9.48547e-08 trig=  9.45365e-08
i_vdd_avg           =  -1.41552e-06 from=  1.00000e-08 to=  3.30003e-07
power_avg_uw        =  2.30697e+00


Total analysis time (seconds) = 4.79066

Total elapsed time (seconds) = 4.967 

Total DRAM available = 16384.000 MB.
DRAM currently available =  143.094 MB.
Maximum ngspice program size =   27.766 MB.
Current ngspice program size =   27.766 MB.

