
Note: Compatibility modes selected: hs a


Circuit: SKY130 library cell aoi21_1 A1_to_Y__A2=1,B1=0

option SCALE: Scale is set to 1e-06 for instance and model parameters
Doing analysis at TEMP = 73.492127 and TNOM = 27.000000

Using KLU as Direct Linear Solver
 Reference value :  3.63374e-08
 Reference value :  1.31172e-07
 Reference value :  2.24202e-07
 Reference value :  3.23262e-07
No. of Data Rows : 68032

  Measurements for Transient Analysis

tphl                =  9.77825e-10 targ=  2.83853e-08 trig=  2.74074e-08
tplh                =  2.05903e-09 targ=  1.06281e-07 trig=  1.04222e-07
i_vdd_avg           =  -9.58933e-07 from=  1.00000e-08 to=  3.30002e-07
power_avg_uw        =  1.84037e+00


Total analysis time (seconds) = 0.897868

Total elapsed time (seconds) = 1.053 

Total DRAM available = 16384.000 MB.
DRAM currently available =   74.391 MB.
Maximum ngspice program size =   25.688 MB.
Current ngspice program size =   25.688 MB.

