
Note: Compatibility modes selected: hs a


Circuit: SKY130 library cell xor2_1 A_to_X__B=0

option SCALE: Scale is set to 1e-06 for instance and model parameters
Doing analysis at TEMP = 69.207873 and TNOM = 27.000000

Using KLU as Direct Linear Solver
 Reference value :  2.22114e-08
 Reference value :  8.89391e-08
 Reference value :  1.51361e-07
 Reference value :  2.16354e-07
 Reference value :  2.75636e-07
No. of Data Rows : 68030

  Measurements for Transient Analysis

tplh                =  1.64276e-09 targ=  2.93135e-08 trig=  2.76708e-08
tphl                =  1.27294e-09 targ=  1.06285e-07 trig=  1.05012e-07
i_vdd_avg           =  -1.28366e-06 from=  1.00000e-08 to=  3.30001e-07
power_avg_uw        =  2.18308e+00


Total analysis time (seconds) = 1.34988

Total elapsed time (seconds) = 1.507 

Total DRAM available = 16384.000 MB.
DRAM currently available =   97.312 MB.
Maximum ngspice program size =   25.188 MB.
Current ngspice program size =   25.188 MB.

