
Note: Compatibility modes selected: hs a


Circuit: SKY130 library cell inv_4 A_to_Y

option SCALE: Scale is set to 1e-06 for instance and model parameters
Doing analysis at TEMP = 108.017670 and TNOM = 27.000000

Using KLU as Direct Linear Solver
 Reference value :  2.65025e-08
 Reference value :  1.12977e-07
 Reference value :  1.98307e-07
 Reference value :  2.81367e-07
No. of Data Rows : 68032

  Measurements for Transient Analysis

tphl                =  -1.70681e-11 targ=  2.87979e-08 trig=  2.88149e-08
tplh                =  9.79920e-10 targ=  1.09425e-07 trig=  1.08445e-07
i_vdd_avg           =  -1.80504e-06 from=  1.00000e-08 to=  3.30002e-07
power_avg_uw        =  3.34718e+00


Total analysis time (seconds) = 1.0284

Total elapsed time (seconds) = 1.187 

Total DRAM available = 16384.000 MB.
DRAM currently available =   80.344 MB.
Maximum ngspice program size =   28.109 MB.
Current ngspice program size =   28.109 MB.

