
Note: Compatibility modes selected: hs a


Circuit: SKY130 library cell nand3_1 A_to_Y__B=1,C=1

option SCALE: Scale is set to 1e-06 for instance and model parameters
Doing analysis at TEMP = 92.529617 and TNOM = 27.000000

Using KLU as Direct Linear Solver
 Reference value :  4.04671e-08
 Reference value :  1.49252e-07
 Reference value :  2.54727e-07
No. of Data Rows : 68032

  Measurements for Transient Analysis

tphl                =  2.24193e-09 targ=  3.00017e-08 trig=  2.77598e-08
tplh                =  2.66014e-09 targ=  1.07939e-07 trig=  1.05279e-07
i_vdd_avg           =  -2.28083e-06 from=  1.00000e-08 to=  3.30002e-07
power_avg_uw        =  4.48820e+00


Total analysis time (seconds) = 0.808239

Total elapsed time (seconds) = 0.992 

Total DRAM available = 16384.000 MB.
DRAM currently available =   91.250 MB.
Maximum ngspice program size =   26.719 MB.
Current ngspice program size =   26.719 MB.

