
Note: Compatibility modes selected: hs a


Circuit: SKY130 library cell mux2_1 A0_to_X__A1=0,S=0

option SCALE: Scale is set to 1e-06 for instance and model parameters
Doing analysis at TEMP = 63.250006 and TNOM = 27.000000

Using KLU as Direct Linear Solver
 Reference value :  1.86914e-08
 Reference value :  6.86733e-08
 Reference value :  1.21759e-07
 Reference value :  1.78334e-07
 Reference value :  2.37008e-07
 Reference value :  2.93459e-07
No. of Data Rows : 68032

  Measurements for Transient Analysis

tplh                =  1.00855e-09 targ=  2.97139e-08 trig=  2.87054e-08
tphl                =  1.88063e-09 targ=  1.09997e-07 trig=  1.08116e-07
i_vdd_avg           =  -1.61725e-06 from=  1.00000e-08 to=  3.30004e-07
power_avg_uw        =  2.83824e+00


Total analysis time (seconds) = 1.5417

Total elapsed time (seconds) = 1.706 

Total DRAM available = 16384.000 MB.
DRAM currently available =   98.000 MB.
Maximum ngspice program size =   26.000 MB.
Current ngspice program size =   26.000 MB.

