
Note: Compatibility modes selected: hs a


Circuit: SKY130 library cell mux2_1 A0_to_X__A1=0,S=0

option SCALE: Scale is set to 1e-06 for instance and model parameters
Doing analysis at TEMP = 75.934097 and TNOM = 27.000000

Using KLU as Direct Linear Solver
 Reference value :  2.08264e-08
 Reference value :  7.08645e-08
 Reference value :  1.24562e-07
 Reference value :  1.77737e-07
 Reference value :  2.28745e-07
 Reference value :  2.78542e-07
 Reference value :  3.33902e-07
No. of Data Rows : 68030

  Measurements for Transient Analysis

tplh                =  7.82169e-10 targ=  2.62182e-08 trig=  2.54360e-08
tphl                =  9.84698e-10 targ=  9.92928e-08 trig=  9.83081e-08
i_vdd_avg           =  -1.17437e-06 from=  1.00000e-08 to=  3.30002e-07
power_avg_uw        =  2.12151e+00


Total analysis time (seconds) = 1.65364

Total elapsed time (seconds) = 1.802 

Total DRAM available = 16384.000 MB.
DRAM currently available =  112.266 MB.
Maximum ngspice program size =   26.828 MB.
Current ngspice program size =   26.828 MB.

