
Note: Compatibility modes selected: hs a


Circuit: SKY130 library cell nor2_4 A_to_Y__B=0

option SCALE: Scale is set to 1e-06 for instance and model parameters
Doing analysis at TEMP = 36.155769 and TNOM = 27.000000

Using KLU as Direct Linear Solver
 Reference value :  1.45764e-08
 Reference value :  5.77583e-08
 Reference value :  9.88383e-08
 Reference value :  1.44934e-07
 Reference value :  1.91158e-07
 Reference value :  2.32968e-07
 Reference value :  2.75323e-07
 Reference value :  3.18719e-07
No. of Data Rows : 68032

  Measurements for Transient Analysis

tphl                =  1.29871e-10 targ=  2.98128e-08 trig=  2.96829e-08
tplh                =  1.96565e-09 targ=  1.13014e-07 trig=  1.11049e-07
i_vdd_avg           =  -1.72262e-06 from=  1.00000e-08 to=  3.30004e-07
power_avg_uw        =  3.23839e+00


Total analysis time (seconds) = 2.00557

Total elapsed time (seconds) = 2.156 

Total DRAM available = 16384.000 MB.
DRAM currently available =  191.375 MB.
Maximum ngspice program size =   24.656 MB.
Current ngspice program size =   24.656 MB.

