
Note: Compatibility modes selected: hs a


Circuit: SKY130 library cell aoi21_1 A1_to_Y__A2=1,B1=0

option SCALE: Scale is set to 1e-06 for instance and model parameters
Doing analysis at TEMP = 119.298210 and TNOM = 27.000000

Using KLU as Direct Linear Solver
 Reference value :  3.80000e-08
 Reference value :  1.37843e-07
 Reference value :  2.38670e-07
 Reference value :  3.33788e-07
No. of Data Rows : 68034

  Measurements for Transient Analysis

tphl                =  8.65752e-10 targ=  2.76045e-08 trig=  2.67388e-08
tplh                =  1.53220e-09 targ=  1.03748e-07 trig=  1.02216e-07
i_vdd_avg           =  -6.22602e-07 from=  1.00000e-08 to=  3.30003e-07
power_avg_uw        =  1.11508e+00


Total analysis time (seconds) = 0.875288

Total elapsed time (seconds) = 1.027 

Total DRAM available = 16384.000 MB.
DRAM currently available =  167.625 MB.
Maximum ngspice program size =   26.406 MB.
Current ngspice program size =   26.406 MB.

