
Note: Compatibility modes selected: hs a


Circuit: SKY130 library cell nor2_1 A_to_Y__B=0

option SCALE: Scale is set to 1e-06 for instance and model parameters
Doing analysis at TEMP = 72.607244 and TNOM = 27.000000

Using KLU as Direct Linear Solver
 Reference value :  5.50280e-08
 Reference value :  2.06078e-07
No. of Data Rows : 68032

  Measurements for Transient Analysis

tphl                =  6.32872e-10 targ=  2.54781e-08 trig=  2.48452e-08
tplh                =  1.52398e-09 targ=  9.80597e-08 trig=  9.65357e-08
i_vdd_avg           =  -1.37838e-06 from=  1.00000e-08 to=  3.30003e-07
power_avg_uw        =  2.72035e+00


Total analysis time (seconds) = 0.577514

Total elapsed time (seconds) = 0.730 

Total DRAM available = 16384.000 MB.
DRAM currently available =  107.797 MB.
Maximum ngspice program size =   28.391 MB.
Current ngspice program size =   28.391 MB.

