
Note: Compatibility modes selected: hs a


Circuit: SKY130 library cell mux2_1 A0_to_X__A1=0,S=0

option SCALE: Scale is set to 1e-06 for instance and model parameters
Doing analysis at TEMP = 22.985498 and TNOM = 27.000000

Using KLU as Direct Linear Solver
 Reference value :  1.36614e-08
 Reference value :  6.59743e-08
 Reference value :  1.17706e-07
 Reference value :  1.70876e-07
 Reference value :  2.26179e-07
 Reference value :  2.81646e-07
 Reference value :  3.32486e-07
No. of Data Rows : 68030

  Measurements for Transient Analysis

tplh                =  8.67420e-10 targ=  2.81458e-08 trig=  2.72784e-08
tphl                =  1.49516e-09 targ=  1.05330e-07 trig=  1.03835e-07
i_vdd_avg           =  -1.70244e-06 from=  1.00000e-08 to=  3.30001e-07
power_avg_uw        =  3.20987e+00


Total analysis time (seconds) = 1.6349

Total elapsed time (seconds) = 1.813 

Total DRAM available = 16384.000 MB.
DRAM currently available =   94.188 MB.
Maximum ngspice program size =   27.203 MB.
Current ngspice program size =   27.203 MB.

