
Note: Compatibility modes selected: hs a


Circuit: SKY130 library cell oai21_4 A1_to_Y__A2=0,B1=1

option SCALE: Scale is set to 1e-06 for instance and model parameters
Doing analysis at TEMP = -31.451006 and TNOM = 27.000000

Using KLU as Direct Linear Solver
 Reference value :  1.09264e-08
 Reference value :  4.16432e-08
 Reference value :  7.02132e-08
 Reference value :  9.85288e-08
 Reference value :  1.29259e-07
 Reference value :  1.57359e-07
 Reference value :  1.85398e-07
 Reference value :  2.16008e-07
 Reference value :  2.47183e-07
 Reference value :  2.77839e-07
 Reference value :  3.09519e-07
 Reference value :  3.37929e-07
No. of Data Rows : 68032

  Measurements for Transient Analysis

tphl                =  2.41261e-10 targ=  2.45741e-08 trig=  2.43328e-08
tplh                =  6.10847e-10 targ=  9.56094e-08 trig=  9.49985e-08
i_vdd_avg           =  -1.26576e-06 from=  1.00000e-08 to=  3.30004e-07
power_avg_uw        =  2.28006e+00


Total analysis time (seconds) = 2.90348

Total elapsed time (seconds) = 3.069 

Total DRAM available = 16384.000 MB.
DRAM currently available =   92.250 MB.
Maximum ngspice program size =   26.203 MB.
Current ngspice program size =   26.203 MB.

