
Note: Compatibility modes selected: hs a


Circuit: SKY130 library cell inv_4 A_to_Y

option SCALE: Scale is set to 1e-06 for instance and model parameters
Doing analysis at TEMP = -15.558851 and TNOM = 27.000000

Using KLU as Direct Linear Solver
 Reference value :  3.87818e-08
 Reference value :  1.36866e-07
 Reference value :  2.19402e-07
 Reference value :  3.13366e-07
No. of Data Rows : 68032

  Measurements for Transient Analysis

tphl                =  4.27330e-10 targ=  3.02245e-08 trig=  2.97971e-08
tplh                =  2.48807e-09 targ=  1.13879e-07 trig=  1.11391e-07
i_vdd_avg           =  -2.25063e-06 from=  1.00000e-08 to=  3.30001e-07
power_avg_uw        =  4.22547e+00


Total analysis time (seconds) = 0.979512

Total elapsed time (seconds) = 1.126 

Total DRAM available = 16384.000 MB.
DRAM currently available =   71.484 MB.
Maximum ngspice program size =   25.828 MB.
Current ngspice program size =   25.828 MB.

