
Note: Compatibility modes selected: hs a


Circuit: SKY130 library cell aoi21_1 A1_to_Y__A2=1,B1=0

option SCALE: Scale is set to 1e-06 for instance and model parameters
Doing analysis at TEMP = 67.705032 and TNOM = 27.000000

Using KLU as Direct Linear Solver
 Reference value :  3.69117e-08
 Reference value :  1.43576e-07
 Reference value :  2.49812e-07
No. of Data Rows : 68032

  Measurements for Transient Analysis

tphl                =  1.37683e-09 targ=  2.97939e-08 trig=  2.84171e-08
tplh                =  2.87476e-09 targ=  1.10126e-07 trig=  1.07251e-07
i_vdd_avg           =  -1.56482e-06 from=  1.00000e-08 to=  3.30001e-07
power_avg_uw        =  3.09399e+00


Total analysis time (seconds) = 0.804443

Total elapsed time (seconds) = 0.957 

Total DRAM available = 16384.000 MB.
DRAM currently available =   98.641 MB.
Maximum ngspice program size =   26.516 MB.
Current ngspice program size =   26.516 MB.

