
Note: Compatibility modes selected: hs a


Circuit: SKY130 library cell nand3_1 A_to_Y__B=1,C=1

option SCALE: Scale is set to 1e-06 for instance and model parameters
Doing analysis at TEMP = 31.561078 and TNOM = 27.000000

Using KLU as Direct Linear Solver
 Reference value :  3.24284e-08
 Reference value :  1.29489e-07
 Reference value :  2.31288e-07
 Reference value :  3.30054e-07
No. of Data Rows : 68032

  Measurements for Transient Analysis

tphl                =  1.31601e-09 targ=  2.59515e-08 trig=  2.46355e-08
tplh                =  1.49486e-09 targ=  9.74012e-08 trig=  9.59064e-08
i_vdd_avg           =  -1.75805e-06 from=  1.00000e-08 to=  3.30004e-07
power_avg_uw        =  3.07101e+00


Total analysis time (seconds) = 0.859137

Total elapsed time (seconds) = 1.029 

Total DRAM available = 16384.000 MB.
DRAM currently available =  112.266 MB.
Maximum ngspice program size =   27.156 MB.
Current ngspice program size =   27.156 MB.

