
Note: Compatibility modes selected: hs a


Circuit: SKY130 library cell inv_4 A_to_Y

option SCALE: Scale is set to 1e-06 for instance and model parameters
Doing analysis at TEMP = 22.235540 and TNOM = 27.000000

Using KLU as Direct Linear Solver
 Reference value :  2.12264e-08
 Reference value :  1.02451e-07
 Reference value :  1.81936e-07
 Reference value :  2.64586e-07
No. of Data Rows : 68032

  Measurements for Transient Analysis

tphl                =  3.76564e-10 targ=  2.59512e-08 trig=  2.55746e-08
tplh                =  9.46063e-10 targ=  9.96699e-08 trig=  9.87238e-08
i_vdd_avg           =  -8.69774e-07 from=  1.00000e-08 to=  3.30001e-07
power_avg_uw        =  1.45804e+00


Total analysis time (seconds) = 1.0756

Total elapsed time (seconds) = 1.247 

Total DRAM available = 16384.000 MB.
DRAM currently available =   94.188 MB.
Maximum ngspice program size =   27.969 MB.
Current ngspice program size =   27.969 MB.

