
Note: Compatibility modes selected: hs a


Circuit: SKY130 library cell inv_1 A_to_Y

option SCALE: Scale is set to 1e-06 for instance and model parameters
Doing analysis at TEMP = 92.467661 and TNOM = 27.000000

Using KLU as Direct Linear Solver
 Reference value :  8.12989e-08
 Reference value :  3.27655e-07
No. of Data Rows : 68030

  Measurements for Transient Analysis

tphl                =  3.81059e-10 targ=  2.53617e-08 trig=  2.49807e-08
tplh                =  6.96127e-10 targ=  9.76382e-08 trig=  9.69421e-08
i_vdd_avg           =  -3.42628e-07 from=  1.00000e-08 to=  3.30000e-07
power_avg_uw        =  5.88994e-01


Total analysis time (seconds) = 0.373595

Total elapsed time (seconds) = 0.519 

Total DRAM available = 16384.000 MB.
DRAM currently available =   98.641 MB.
Maximum ngspice program size =   25.938 MB.
Current ngspice program size =   25.938 MB.

