
Note: Compatibility modes selected: hs a


Circuit: SKY130 library cell xor2_1 A_to_X__B=0

option SCALE: Scale is set to 1e-06 for instance and model parameters
Doing analysis at TEMP = 113.765150 and TNOM = 27.000000

Using KLU as Direct Linear Solver
 Reference value :  2.29064e-08
 Reference value :  8.68474e-08
 Reference value :  1.54802e-07
 Reference value :  2.18932e-07
 Reference value :  2.85492e-07
No. of Data Rows : 68032

  Measurements for Transient Analysis

tplh                =  5.62012e-10 targ=  3.03720e-08 trig=  2.98099e-08
tphl                =  1.28975e-09 targ=  1.12720e-07 trig=  1.11430e-07
i_vdd_avg           =  -1.37257e-06 from=  1.00000e-08 to=  3.30002e-07
power_avg_uw        =  2.59517e+00


Total analysis time (seconds) = 1.29838

Total elapsed time (seconds) = 1.452 

Total DRAM available = 16384.000 MB.
DRAM currently available =   98.641 MB.
Maximum ngspice program size =   26.141 MB.
Current ngspice program size =   26.141 MB.

