
Note: Compatibility modes selected: hs a


Circuit: SKY130 library cell aoi21_1 A1_to_Y__A2=1,B1=0

option SCALE: Scale is set to 1e-06 for instance and model parameters
Doing analysis at TEMP = -32.368785 and TNOM = 27.000000

Using KLU as Direct Linear Solver
 Reference value :  5.52585e-08
 Reference value :  1.55264e-07
 Reference value :  2.64308e-07
No. of Data Rows : 68032

  Measurements for Transient Analysis

tphl                =  5.35977e-10 targ=  2.97615e-08 trig=  2.92255e-08
tplh                =  2.62590e-09 targ=  1.12302e-07 trig=  1.09676e-07
i_vdd_avg           =  -2.11970e-07 from=  1.00000e-08 to=  3.30004e-07
power_avg_uw        =  3.63134e-01


Total analysis time (seconds) = 0.845152

Total elapsed time (seconds) = 0.971 

Total DRAM available = 16384.000 MB.
DRAM currently available =  157.344 MB.
Maximum ngspice program size =   24.594 MB.
Current ngspice program size =   24.594 MB.

