
Note: Compatibility modes selected: hs a


Circuit: SKY130 library cell mux2_4 A0_to_X__A1=0,S=0

option SCALE: Scale is set to 1e-06 for instance and model parameters
Doing analysis at TEMP = 9.283855 and TNOM = 27.000000

Using KLU as Direct Linear Solver
 Reference value :  1.30964e-08
 Reference value :  5.12434e-08
 Reference value :  8.95334e-08
 Reference value :  1.29919e-07
 Reference value :  1.66574e-07
 Reference value :  2.01843e-07
 Reference value :  2.40578e-07
 Reference value :  2.77454e-07
 Reference value :  3.15884e-07
No. of Data Rows : 68032

  Measurements for Transient Analysis

tplh                =  3.55239e-10 targ=  2.67532e-08 trig=  2.63979e-08
tphl                =  1.08645e-09 targ=  1.02280e-07 trig=  1.01194e-07
i_vdd_avg           =  -2.05093e-07 from=  1.00000e-08 to=  3.30004e-07
power_avg_uw        =  3.54386e-01


Total analysis time (seconds) = 2.29869

Total elapsed time (seconds) = 2.460 

Total DRAM available = 16384.000 MB.
DRAM currently available =  107.797 MB.
Maximum ngspice program size =   26.547 MB.
Current ngspice program size =   26.547 MB.

