
Note: Compatibility modes selected: hs a


Circuit: SKY130 library cell nor2_4 A_to_Y__B=0

option SCALE: Scale is set to 1e-06 for instance and model parameters
Doing analysis at TEMP = 77.384413 and TNOM = 27.000000

Using KLU as Direct Linear Solver
 Reference value :  1.19614e-08
 Reference value :  5.38041e-08
 Reference value :  9.51491e-08
 Reference value :  1.37071e-07
 Reference value :  1.78121e-07
 Reference value :  2.18964e-07
 Reference value :  2.58369e-07
 Reference value :  3.00266e-07
No. of Data Rows : 68030

  Measurements for Transient Analysis

tphl                =  -4.28998e-10 targ=  2.83268e-08 trig=  2.87558e-08
tplh                =  7.55669e-10 targ=  1.09023e-07 trig=  1.08267e-07
i_vdd_avg           =  -1.39196e-06 from=  1.00000e-08 to=  3.30001e-07
power_avg_uw        =  2.70966e+00


Total analysis time (seconds) = 2.09741

Total elapsed time (seconds) = 2.272 

Total DRAM available = 16384.000 MB.
DRAM currently available =   97.312 MB.
Maximum ngspice program size =   29.156 MB.
Current ngspice program size =   29.156 MB.

