
Note: Compatibility modes selected: hs a


Circuit: SKY130 library cell oai21_4 A1_to_Y__A2=0,B1=1

option SCALE: Scale is set to 1e-06 for instance and model parameters
Doing analysis at TEMP = 3.835107 and TNOM = 27.000000

Using KLU as Direct Linear Solver
 Reference value :  6.86140e-09
 Reference value :  3.34225e-08
 Reference value :  6.06853e-08
 Reference value :  8.67553e-08
 Reference value :  1.13035e-07
 Reference value :  1.40768e-07
 Reference value :  1.68643e-07
 Reference value :  1.97030e-07
 Reference value :  2.26485e-07
 Reference value :  2.54790e-07
 Reference value :  2.84198e-07
 Reference value :  3.13418e-07
No. of Data Rows : 68034

  Measurements for Transient Analysis

tphl                =  1.15122e-12 targ=  2.95225e-08 trig=  2.95214e-08
tplh                =  1.72394e-09 targ=  1.12288e-07 trig=  1.10564e-07
i_vdd_avg           =  -9.15485e-07 from=  1.00000e-08 to=  3.30003e-07
power_avg_uw        =  1.71468e+00


Total analysis time (seconds) = 3.1007

Total elapsed time (seconds) = 3.285 

Total DRAM available = 16384.000 MB.
DRAM currently available =   94.188 MB.
Maximum ngspice program size =   27.312 MB.
Current ngspice program size =   27.312 MB.

