
Note: Compatibility modes selected: hs a


Circuit: SKY130 library cell oai21_4 A1_to_Y__A2=0,B1=1

option SCALE: Scale is set to 1e-06 for instance and model parameters
Doing analysis at TEMP = 33.499669 and TNOM = 27.000000

Using KLU as Direct Linear Solver
 Reference value :  9.32140e-09
 Reference value :  4.17431e-08
 Reference value :  7.11881e-08
 Reference value :  1.02158e-07
 Reference value :  1.31304e-07
 Reference value :  1.57999e-07
 Reference value :  1.87253e-07
 Reference value :  2.16143e-07
 Reference value :  2.45208e-07
 Reference value :  2.71964e-07
 Reference value :  2.98529e-07
 Reference value :  3.25404e-07
No. of Data Rows : 68032

  Measurements for Transient Analysis

tphl                =  4.47412e-10 targ=  2.74327e-08 trig=  2.69853e-08
tplh                =  1.49463e-09 targ=  1.04450e-07 trig=  1.02956e-07
i_vdd_avg           =  -2.22789e-06 from=  1.00000e-08 to=  3.30004e-07
power_avg_uw        =  4.39836e+00


Total analysis time (seconds) = 3.04218

Total elapsed time (seconds) = 3.215 

Total DRAM available = 16384.000 MB.
DRAM currently available =   81.734 MB.
Maximum ngspice program size =   25.859 MB.
Current ngspice program size =   25.859 MB.

