
Note: Compatibility modes selected: hs a


Circuit: SKY130 library cell inv_4 A_to_Y

option SCALE: Scale is set to 1e-06 for instance and model parameters
Doing analysis at TEMP = -5.875274 and TNOM = 27.000000

Using KLU as Direct Linear Solver
 Reference value :  2.63175e-08
 Reference value :  1.19095e-07
 Reference value :  2.05314e-07
 Reference value :  2.88390e-07
No. of Data Rows : 68032

  Measurements for Transient Analysis

tphl                =  -1.60875e-10 targ=  2.68447e-08 trig=  2.70055e-08
tplh                =  7.08847e-10 targ=  1.03725e-07 trig=  1.03017e-07
i_vdd_avg           =  -2.12182e-07 from=  1.00000e-08 to=  3.30005e-07
power_avg_uw        =  3.74133e-01


Total analysis time (seconds) = 1.00419

Total elapsed time (seconds) = 1.172 

Total DRAM available = 16384.000 MB.
DRAM currently available =   96.094 MB.
Maximum ngspice program size =   26.266 MB.
Current ngspice program size =   26.266 MB.

