
Note: Compatibility modes selected: hs a


Circuit: SKY130 library cell xor2_4 A_to_X__B=0

option SCALE: Scale is set to 1e-06 for instance and model parameters
Doing analysis at TEMP = 20.868000 and TNOM = 27.000000

Using KLU as Direct Linear Solver
 Reference value :  2.74140e-09
 Reference value :  1.87114e-08
 Reference value :  3.54175e-08
 Reference value :  5.27018e-08
 Reference value :  7.04268e-08
 Reference value :  8.55718e-08
 Reference value :  1.03122e-07
 Reference value :  1.18976e-07
 Reference value :  1.36021e-07
 Reference value :  1.51811e-07
 Reference value :  1.68356e-07
 Reference value :  1.85463e-07
 Reference value :  2.01947e-07
 Reference value :  2.18417e-07
 Reference value :  2.36092e-07
 Reference value :  2.53642e-07
 Reference value :  2.70432e-07
 Reference value :  2.88336e-07
 Reference value :  3.07486e-07
 Reference value :  3.27001e-07
No. of Data Rows : 68032

  Measurements for Transient Analysis

tplh                =  -1.44070e-10 targ=  2.97181e-08 trig=  2.98622e-08
tphl                =  1.32571e-09 targ=  1.12912e-07 trig=  1.11586e-07
i_vdd_avg           =  -8.14436e-07 from=  1.00000e-08 to=  3.30001e-07
power_avg_uw        =  1.44427e+00


Total analysis time (seconds) = 5.03995

Total elapsed time (seconds) = 5.234 

Total DRAM available = 16384.000 MB.
DRAM currently available =  130.422 MB.
Maximum ngspice program size =   27.547 MB.
Current ngspice program size =   27.547 MB.

