
Note: Compatibility modes selected: hs a


Circuit: SKY130 library cell nor2_4 A_to_Y__B=0

option SCALE: Scale is set to 1e-06 for instance and model parameters
Doing analysis at TEMP = 8.734100 and TNOM = 27.000000

Using KLU as Direct Linear Solver
 Reference value :  1.16414e-08
 Reference value :  4.94359e-08
 Reference value :  9.36059e-08
 Reference value :  1.35754e-07
 Reference value :  1.80539e-07
 Reference value :  2.23991e-07
 Reference value :  2.70214e-07
 Reference value :  3.21949e-07
No. of Data Rows : 68034

  Measurements for Transient Analysis

tphl                =  4.94016e-10 targ=  2.61482e-08 trig=  2.56542e-08
tplh                =  1.36077e-09 targ=  1.00323e-07 trig=  9.89625e-08
i_vdd_avg           =  -1.39427e-06 from=  1.00000e-08 to=  3.30004e-07
power_avg_uw        =  2.38532e+00


Total analysis time (seconds) = 1.93354

Total elapsed time (seconds) = 2.105 

Total DRAM available = 16384.000 MB.
DRAM currently available =  130.422 MB.
Maximum ngspice program size =   26.422 MB.
Current ngspice program size =   26.422 MB.

