
Note: Compatibility modes selected: hs a


Circuit: SKY130 library cell mux2_4 A0_to_X__A1=0,S=0

option SCALE: Scale is set to 1e-06 for instance and model parameters
Doing analysis at TEMP = 105.231290 and TNOM = 27.000000

Using KLU as Direct Linear Solver
 Reference value :  1.58814e-08
 Reference value :  5.45956e-08
 Reference value :  9.53256e-08
 Reference value :  1.27164e-07
 Reference value :  1.64169e-07
 Reference value :  2.05941e-07
 Reference value :  2.46911e-07
 Reference value :  2.87239e-07
 Reference value :  3.26949e-07
No. of Data Rows : 68034

  Measurements for Transient Analysis

tplh                =  2.00868e-10 targ=  2.99324e-08 trig=  2.97316e-08
tphl                =  1.45872e-09 targ=  1.12653e-07 trig=  1.11195e-07
i_vdd_avg           =  -1.68249e-06 from=  1.00000e-08 to=  3.30004e-07
power_avg_uw        =  3.27582e+00


Total analysis time (seconds) = 2.2522

Total elapsed time (seconds) = 2.414 

Total DRAM available = 16384.000 MB.
DRAM currently available =   75.797 MB.
Maximum ngspice program size =   25.062 MB.
Current ngspice program size =   25.062 MB.

