
Note: Compatibility modes selected: hs a


Circuit: SKY130 library cell nand3_4 A_to_Y__B=1,C=1

option SCALE: Scale is set to 1e-06 for instance and model parameters
Doing analysis at TEMP = 33.249741 and TNOM = 27.000000

Using KLU as Direct Linear Solver
 Reference value :  9.12640e-09
 Reference value :  4.06207e-08
 Reference value :  7.11007e-08
 Reference value :  1.02911e-07
 Reference value :  1.32304e-07
 Reference value :  1.61959e-07
 Reference value :  1.91621e-07
 Reference value :  2.22156e-07
 Reference value :  2.50771e-07
 Reference value :  2.77974e-07
 Reference value :  3.07914e-07
 Reference value :  3.36669e-07
No. of Data Rows : 68034

  Measurements for Transient Analysis

tphl                =  1.25132e-09 targ=  2.88354e-08 trig=  2.75841e-08
tplh                =  2.14293e-09 targ=  1.06895e-07 trig=  1.04752e-07
i_vdd_avg           =  -2.11923e-06 from=  1.00000e-08 to=  3.30004e-07
power_avg_uw        =  3.54853e+00


Total analysis time (seconds) = 2.93099

Total elapsed time (seconds) = 3.096 

Total DRAM available = 16384.000 MB.
DRAM currently available =   91.797 MB.
Maximum ngspice program size =   27.219 MB.
Current ngspice program size =   27.219 MB.

