
Note: Compatibility modes selected: hs a


Circuit: SKY130 library cell nor2_1 A_to_Y__B=0

option SCALE: Scale is set to 1e-06 for instance and model parameters
Doing analysis at TEMP = 51.148290 and TNOM = 27.000000

Using KLU as Direct Linear Solver
 Reference value :  5.07481e-08
 Reference value :  1.97528e-07
 Reference value :  3.34429e-07
No. of Data Rows : 68032

  Measurements for Transient Analysis

tphl                =  7.17224e-10 targ=  2.76400e-08 trig=  2.69228e-08
tplh                =  2.00962e-09 targ=  1.04778e-07 trig=  1.02768e-07
i_vdd_avg           =  -8.99837e-07 from=  1.00000e-08 to=  3.30004e-07
power_avg_uw        =  1.71204e+00


Total analysis time (seconds) = 0.611353

Total elapsed time (seconds) = 0.773 

Total DRAM available = 16384.000 MB.
DRAM currently available =  105.531 MB.
Maximum ngspice program size =   25.672 MB.
Current ngspice program size =   25.672 MB.

