
Note: Compatibility modes selected: hs a


Circuit: SKY130 library cell nor2_1 A_to_Y__B=0

option SCALE: Scale is set to 1e-06 for instance and model parameters
Doing analysis at TEMP = -4.619083 and TNOM = 27.000000

Using KLU as Direct Linear Solver
 Reference value :  5.52214e-08
 Reference value :  2.07761e-07
No. of Data Rows : 68032

  Measurements for Transient Analysis

tphl                =  2.03641e-09 targ=  2.95084e-08 trig=  2.74720e-08
tplh                =  5.51408e-09 targ=  1.09930e-07 trig=  1.04416e-07
i_vdd_avg           =  -2.06789e-06 from=  1.00000e-08 to=  3.30000e-07
power_avg_uw        =  3.42932e+00


Total analysis time (seconds) = 0.585017

Total elapsed time (seconds) = 0.730 

Total DRAM available = 16384.000 MB.
DRAM currently available =   91.250 MB.
Maximum ngspice program size =   25.484 MB.
Current ngspice program size =   25.484 MB.

