
Note: Compatibility modes selected: hs a


Circuit: SKY130 library cell inv_1 A_to_Y

option SCALE: Scale is set to 1e-06 for instance and model parameters
Doing analysis at TEMP = 9.105641 and TNOM = 27.000000

Using KLU as Direct Linear Solver
 Reference value :  8.90765e-08
 Reference value :  3.28746e-07
No. of Data Rows : 68032

  Measurements for Transient Analysis

tphl                =  1.29730e-09 targ=  2.74718e-08 trig=  2.61745e-08
tplh                =  2.41870e-09 targ=  1.02942e-07 trig=  1.00524e-07
i_vdd_avg           =  -1.85079e-06 from=  1.00000e-08 to=  3.30001e-07
power_avg_uw        =  3.31419e+00


Total analysis time (seconds) = 0.401625

Total elapsed time (seconds) = 0.542 

Total DRAM available = 16384.000 MB.
DRAM currently available =   91.797 MB.
Maximum ngspice program size =   25.625 MB.
Current ngspice program size =   25.625 MB.

