
Note: Compatibility modes selected: hs a


Circuit: SKY130 library cell nor2_4 A_to_Y__B=0

option SCALE: Scale is set to 1e-06 for instance and model parameters
Doing analysis at TEMP = -38.920202 and TNOM = 27.000000

Using KLU as Direct Linear Solver
 Reference value :  1.43114e-08
 Reference value :  6.23057e-08
 Reference value :  1.07661e-07
 Reference value :  1.49344e-07
 Reference value :  1.92256e-07
 Reference value :  2.34161e-07
 Reference value :  2.77129e-07
 Reference value :  3.18849e-07
No. of Data Rows : 68034

  Measurements for Transient Analysis

tphl                =  6.04917e-10 targ=  2.81415e-08 trig=  2.75366e-08
tplh                =  2.36264e-09 targ=  1.06972e-07 trig=  1.04610e-07
i_vdd_avg           =  -1.76297e-06 from=  1.00000e-08 to=  3.30004e-07
power_avg_uw        =  3.15616e+00


Total analysis time (seconds) = 2.01973

Total elapsed time (seconds) = 2.179 

Total DRAM available = 16384.000 MB.
DRAM currently available =   94.281 MB.
Maximum ngspice program size =   24.609 MB.
Current ngspice program size =   24.609 MB.

