
Note: Compatibility modes selected: hs a


Circuit: SKY130 library cell nand2_1 A_to_Y__B=1

option SCALE: Scale is set to 1e-06 for instance and model parameters
Doing analysis at TEMP = 110.426290 and TNOM = 27.000000

Using KLU as Direct Linear Solver
 Reference value :  4.47626e-08
 Reference value :  1.83363e-07
 Reference value :  3.27103e-07
No. of Data Rows : 68032

  Measurements for Transient Analysis

tphl                =  1.19754e-09 targ=  2.93526e-08 trig=  2.81551e-08
tplh                =  1.93717e-09 targ=  1.08402e-07 trig=  1.06465e-07
i_vdd_avg           =  -8.22722e-07 from=  1.00000e-08 to=  3.30003e-07
power_avg_uw        =  1.45480e+00


Total analysis time (seconds) = 0.612701

Total elapsed time (seconds) = 0.776 

Total DRAM available = 16384.000 MB.
DRAM currently available =   73.875 MB.
Maximum ngspice program size =   27.312 MB.
Current ngspice program size =   27.312 MB.

