
Note: Compatibility modes selected: hs a


Circuit: SKY130 library cell mux2_1 A0_to_X__A1=0,S=0

option SCALE: Scale is set to 1e-06 for instance and model parameters
Doing analysis at TEMP = -4.443197 and TNOM = 27.000000

Using KLU as Direct Linear Solver
 Reference value :  1.88064e-08
 Reference value :  7.51171e-08
 Reference value :  1.31792e-07
 Reference value :  1.88952e-07
 Reference value :  2.44772e-07
 Reference value :  2.97887e-07
No. of Data Rows : 68032

  Measurements for Transient Analysis

tplh                =  3.67051e-10 targ=  2.47068e-08 trig=  2.43398e-08
tphl                =  4.70398e-10 targ=  9.54897e-08 trig=  9.50193e-08
i_vdd_avg           =  -2.69991e-07 from=  1.00000e-08 to=  3.30002e-07
power_avg_uw        =  4.46993e-01


Total analysis time (seconds) = 1.5504

Total elapsed time (seconds) = 1.701 

Total DRAM available = 16384.000 MB.
DRAM currently available =  101.547 MB.
Maximum ngspice program size =   29.672 MB.
Current ngspice program size =   29.672 MB.

