
Note: Compatibility modes selected: hs a


Circuit: SKY130 library cell mux2_1 A0_to_X__A1=0,S=0

option SCALE: Scale is set to 1e-06 for instance and model parameters
Doing analysis at TEMP = 111.993600 and TNOM = 27.000000

Using KLU as Direct Linear Solver
 Reference value :  1.82864e-08
 Reference value :  7.79296e-08
 Reference value :  1.35667e-07
 Reference value :  1.90853e-07
 Reference value :  2.47370e-07
 Reference value :  3.00797e-07
No. of Data Rows : 68030

  Measurements for Transient Analysis

tplh                =  8.24403e-11 targ=  2.93935e-08 trig=  2.93110e-08
tphl                =  1.58789e-09 targ=  1.11521e-07 trig=  1.09933e-07
i_vdd_avg           =  -9.78487e-07 from=  1.00000e-08 to=  3.30002e-07
power_avg_uw        =  1.92648e+00


Total analysis time (seconds) = 1.58115

Total elapsed time (seconds) = 1.732 

Total DRAM available = 16384.000 MB.
DRAM currently available =   91.250 MB.
Maximum ngspice program size =   26.422 MB.
Current ngspice program size =   26.422 MB.

