
Note: Compatibility modes selected: hs a


Circuit: SKY130 library cell oai21_1 A1_to_Y__A2=0,B1=1

option SCALE: Scale is set to 1e-06 for instance and model parameters
Doing analysis at TEMP = 40.609215 and TNOM = 27.000000

Using KLU as Direct Linear Solver
 Reference value :  2.76675e-08
 Reference value :  1.19809e-07
 Reference value :  2.13671e-07
 Reference value :  3.06509e-07
No. of Data Rows : 68034

  Measurements for Transient Analysis

tphl                =  1.17822e-09 targ=  2.94547e-08 trig=  2.82765e-08
tplh                =  2.85302e-09 targ=  1.09683e-07 trig=  1.06830e-07
i_vdd_avg           =  -9.48474e-07 from=  1.00000e-08 to=  3.30004e-07
power_avg_uw        =  1.72717e+00


Total analysis time (seconds) = 0.929312

Total elapsed time (seconds) = 1.089 

Total DRAM available = 16384.000 MB.
DRAM currently available =  109.344 MB.
Maximum ngspice program size =   25.594 MB.
Current ngspice program size =   25.594 MB.

