
Note: Compatibility modes selected: hs a


Circuit: SKY130 library cell aoi21_4 A1_to_Y__A2=1,B1=0

option SCALE: Scale is set to 1e-06 for instance and model parameters
Doing analysis at TEMP = 57.487585 and TNOM = 27.000000

Using KLU as Direct Linear Solver
 Reference value :  1.34664e-08
 Reference value :  4.35917e-08
 Reference value :  7.22017e-08
 Reference value :  1.03091e-07
 Reference value :  1.33586e-07
 Reference value :  1.62861e-07
 Reference value :  1.91332e-07
 Reference value :  2.21847e-07
 Reference value :  2.52637e-07
 Reference value :  2.81606e-07
 Reference value :  3.13341e-07
No. of Data Rows : 68032

  Measurements for Transient Analysis

tphl                =  5.48021e-10 targ=  2.51551e-08 trig=  2.46071e-08
tplh                =  1.10181e-09 targ=  9.69231e-08 trig=  9.58213e-08
i_vdd_avg           =  -1.98896e-06 from=  1.00000e-08 to=  3.30001e-07
power_avg_uw        =  3.25487e+00


Total analysis time (seconds) = 2.92459

Total elapsed time (seconds) = 3.068 

Total DRAM available = 16384.000 MB.
DRAM currently available =  100.516 MB.
Maximum ngspice program size =   27.266 MB.
Current ngspice program size =   27.266 MB.

