
Note: Compatibility modes selected: hs a


Circuit: SKY130 library cell oai21_1 A1_to_Y__A2=0,B1=1

option SCALE: Scale is set to 1e-06 for instance and model parameters
Doing analysis at TEMP = 78.159909 and TNOM = 27.000000

Using KLU as Direct Linear Solver
 Reference value :  3.39446e-08
 Reference value :  1.46397e-07
 Reference value :  2.47240e-07
No. of Data Rows : 68030

  Measurements for Transient Analysis

tphl                =  1.04773e-09 targ=  2.51113e-08 trig=  2.40636e-08
tplh                =  2.79952e-09 targ=  9.69902e-08 trig=  9.41907e-08
i_vdd_avg           =  -1.92082e-06 from=  1.00000e-08 to=  3.30002e-07
power_avg_uw        =  3.21273e+00


Total analysis time (seconds) = 0.817603

Total elapsed time (seconds) = 0.965 

Total DRAM available = 16384.000 MB.
DRAM currently available =  100.516 MB.
Maximum ngspice program size =   26.938 MB.
Current ngspice program size =   26.938 MB.

