
Note: Compatibility modes selected: hs a


Circuit: SKY130 library cell nor2_4 A_to_Y__B=0

option SCALE: Scale is set to 1e-06 for instance and model parameters
Doing analysis at TEMP = 101.380010 and TNOM = 27.000000

Using KLU as Direct Linear Solver
 Reference value :  1.30864e-08
 Reference value :  5.46200e-08
 Reference value :  1.00802e-07
 Reference value :  1.46497e-07
 Reference value :  1.93640e-07
 Reference value :  2.37920e-07
 Reference value :  2.83457e-07
 Reference value :  3.28107e-07
No. of Data Rows : 68030

  Measurements for Transient Analysis

tphl                =  1.47989e-10 targ=  2.43917e-08 trig=  2.42437e-08
tplh                =  3.12198e-10 targ=  9.50434e-08 trig=  9.47312e-08
i_vdd_avg           =  -5.33432e-07 from=  1.00000e-08 to=  3.30002e-07
power_avg_uw        =  8.69567e-01


Total analysis time (seconds) = 1.93652

Total elapsed time (seconds) = 2.095 

Total DRAM available = 16384.000 MB.
DRAM currently available =  100.516 MB.
Maximum ngspice program size =   26.984 MB.
Current ngspice program size =   26.984 MB.

