
Note: Compatibility modes selected: hs a


Circuit: SKY130 library cell xor2_1 A_to_X__B=0

option SCALE: Scale is set to 1e-06 for instance and model parameters
Doing analysis at TEMP = -9.871456 and TNOM = 27.000000

Using KLU as Direct Linear Solver
 Reference value :  2.34314e-08
 Reference value :  8.69844e-08
 Reference value :  1.51611e-07
 Reference value :  2.20914e-07
 Reference value :  2.87751e-07
No. of Data Rows : 68030

  Measurements for Transient Analysis

tplh                =  1.72276e-09 targ=  3.05062e-08 trig=  2.87834e-08
tphl                =  1.60338e-09 targ=  1.09954e-07 trig=  1.08350e-07
i_vdd_avg           =  -2.38574e-06 from=  1.00000e-08 to=  3.30001e-07
power_avg_uw        =  4.70115e+00


Total analysis time (seconds) = 1.30553

Total elapsed time (seconds) = 1.461 

Total DRAM available = 16384.000 MB.
DRAM currently available =  100.516 MB.
Maximum ngspice program size =   27.078 MB.
Current ngspice program size =   27.078 MB.

