
Note: No compatibility mode selected!


Circuit: XOR2 seed characterization sample 4003044

Doing analysis at TEMP = -3.405720 and TNOM = 27.000000

Using SPARSE 1.3 as Direct Linear Solver

Initial Transient Solution
--------------------------

Node                                   Voltage
----                                   -------
vdd                                    1.66529
in                                           0
b                                      1.66529
abar                                   1.66529
bbar                               1.66151e-09
out                                    1.66529
vb#branch                                    0
vin#branch                         2.44975e-12
vdd#branch                         -1.1411e-11

 Reference value :  2.23537e-08
 Reference value :  5.46977e-08
 Reference value :  9.14237e-08
No. of Data Rows : 60041

  Measurements for Transient Analysis

tphl                =  2.88058e-10 targ=  2.45242e-09 trig=  2.16436e-09
tplh                =  3.81887e-10 targ=  2.28750e-08 trig=  2.24931e-08
i_vdd_avg           =  -3.61392e-06 from=  5.00000e-09 to=  1.10000e-07
power_avg_uw        =  6.01822e+00


Total analysis time (seconds) = 0.845784

Total elapsed time (seconds) = 0.929 

Total DRAM available = 16384.000 MB.
DRAM currently available =  146.203 MB.
Maximum ngspice program size =   12.609 MB.
Current ngspice program size =   12.297 MB.

