
Note: No compatibility mode selected!


Circuit: XOR2 seed characterization sample 4003011

Doing analysis at TEMP = 75.730400 and TNOM = 27.000000

Using SPARSE 1.3 as Direct Linear Solver

Initial Transient Solution
--------------------------

Node                                   Voltage
----                                   -------
vdd                                    1.86645
in                                           0
b                                      1.86645
abar                                   1.86645
bbar                                2.7166e-08
out                                    1.86645
vb#branch                                    0
vin#branch                         1.97854e-10
vdd#branch                        -3.57199e-10

 Reference value :  2.24688e-08
 Reference value :  5.39809e-08
 Reference value :  8.84689e-08
No. of Data Rows : 60044

  Measurements for Transient Analysis

tphl                =  3.60535e-10 targ=  2.43449e-09 trig=  2.07396e-09
tplh                =  3.28318e-10 targ=  2.25502e-08 trig=  2.22219e-08
i_vdd_avg           =  -5.86022e-06 from=  5.00000e-09 to=  1.10001e-07
power_avg_uw        =  1.09378e+01


Total analysis time (seconds) = 0.873884

Total elapsed time (seconds) = 0.953 

Total DRAM available = 16384.000 MB.
DRAM currently available =  246.344 MB.
Maximum ngspice program size =   12.578 MB.
Current ngspice program size =   11.656 MB.

