
Note: No compatibility mode selected!


Circuit: NAND2 seed characterization sample 4003006

Doing analysis at TEMP = 40.725400 and TNOM = 27.000000

Using SPARSE 1.3 as Direct Linear Solver

Initial Transient Solution
--------------------------

Node                                   Voltage
----                                   -------
vdd                                    1.79045
in                                           0
out                                    1.79045
nmid                                 0.0528839
vin#branch                                   0
vdd#branch                        -2.78284e-12

 Reference value :  3.93087e-08
 Reference value :  9.50868e-08
No. of Data Rows : 60044

  Measurements for Transient Analysis

tphl                =  1.15354e-09 targ=  3.23646e-09 trig=  2.08292e-09
tplh                =  5.53586e-10 targ=  2.28024e-08 trig=  2.22488e-08
i_vdd_avg           =  -4.82884e-06 from=  5.00000e-09 to=  1.10001e-07
power_avg_uw        =  8.64579e+00


Total analysis time (seconds) = 0.518882

Total elapsed time (seconds) = 0.595 

Total DRAM available = 16384.000 MB.
DRAM currently available =  199.859 MB.
Maximum ngspice program size =   12.938 MB.
Current ngspice program size =   12.938 MB.

