
Note: No compatibility mode selected!


Circuit: NOR2 seed characterization sample 4003025

Doing analysis at TEMP = 88.712700 and TNOM = 27.000000

Using SPARSE 1.3 as Direct Linear Solver

Initial Transient Solution
--------------------------

Node                                   Voltage
----                                   -------
vdd                                    1.69946
in                                           0
out                                    1.69946
pmid                                   1.69946
vin#branch                                   0
vdd#branch                        -1.24966e-09

 Reference value :  3.94937e-08
 Reference value :  9.44624e-08
No. of Data Rows : 60047

  Measurements for Transient Analysis

tphl                =  8.20911e-11 targ=  2.12577e-09 trig=  2.04368e-09
tplh                =  2.97298e-10 targ=  2.24283e-08 trig=  2.21310e-08
i_vdd_avg           =  -5.68705e-06 from=  5.00000e-09 to=  1.10002e-07
power_avg_uw        =  9.66491e+00


Total analysis time (seconds) = 0.521724

Total elapsed time (seconds) = 0.599 

Total DRAM available = 16384.000 MB.
DRAM currently available =  222.344 MB.
Maximum ngspice program size =   12.562 MB.
Current ngspice program size =   11.906 MB.

