
Note: No compatibility mode selected!


Circuit: XOR2 seed characterization sample 4003002

Doing analysis at TEMP = 20.302800 and TNOM = 27.000000

Using SPARSE 1.3 as Direct Linear Solver

Initial Transient Solution
--------------------------

Node                                   Voltage
----                                   -------
vdd                                    1.84336
in                                           0
b                                      1.84336
abar                                   1.84336
bbar                               6.33574e-09
out                                    1.84336
vb#branch                                    0
vin#branch                         3.72708e-12
vdd#branch                        -1.47193e-11

 Reference value :  2.50488e-08
 Reference value :  5.94269e-08
 Reference value :  9.39749e-08
No. of Data Rows : 60044

  Measurements for Transient Analysis

tphl                =  5.55918e-10 targ=  2.77487e-09 trig=  2.21895e-09
tplh                =  5.85322e-10 targ=  2.32422e-08 trig=  2.26569e-08
i_vdd_avg           =  -3.05182e-06 from=  5.00000e-09 to=  1.10001e-07
power_avg_uw        =  5.62560e+00


Total analysis time (seconds) = 0.83396

Total elapsed time (seconds) = 0.911 

Total DRAM available = 16384.000 MB.
DRAM currently available =  226.719 MB.
Maximum ngspice program size =   12.578 MB.
Current ngspice program size =   11.656 MB.

