
Note: No compatibility mode selected!


Circuit: NOR2 seed characterization sample 4003018

Doing analysis at TEMP = 37.225000 and TNOM = 27.000000

Using SPARSE 1.3 as Direct Linear Solver

Initial Transient Solution
--------------------------

Node                                   Voltage
----                                   -------
vdd                                    1.86931
in                                           0
out                                    1.86931
pmid                                   1.86931
vin#branch                                   0
vdd#branch                        -5.23776e-11

 Reference value :  3.88113e-08
 Reference value :  9.21011e-08
No. of Data Rows : 60044

  Measurements for Transient Analysis

tphl                =  1.34197e-10 targ=  2.34527e-09 trig=  2.21107e-09
tplh                =  4.13416e-10 targ=  2.30466e-08 trig=  2.26332e-08
i_vdd_avg           =  -5.01017e-06 from=  5.00000e-09 to=  1.10001e-07
power_avg_uw        =  9.36557e+00


Total analysis time (seconds) = 0.530856

Total elapsed time (seconds) = 0.609 

Total DRAM available = 16384.000 MB.
DRAM currently available =  212.375 MB.
Maximum ngspice program size =   12.594 MB.
Current ngspice program size =   12.016 MB.

