
Note: No compatibility mode selected!


Circuit: INV seed characterization sample 4003028

Doing analysis at TEMP = 31.290800 and TNOM = 27.000000

Using SPARSE 1.3 as Direct Linear Solver

Initial Transient Solution
--------------------------

Node                                   Voltage
----                                   -------
vdd                                    1.93234
in                                           0
out                                    1.93234
vin#branch                                   0
vdd#branch                        -6.74748e-12

 Reference value :  6.28542e-08
No. of Data Rows : 60041

  Measurements for Transient Analysis

tphl                =  1.41793e-10 targ=  2.28510e-09 trig=  2.14331e-09
tplh                =  1.53237e-10 targ=  2.25832e-08 trig=  2.24299e-08
i_vdd_avg           =  -1.23365e-06 from=  5.00000e-09 to=  1.10000e-07
power_avg_uw        =  2.38383e+00


Total analysis time (seconds) = 0.33004

Total elapsed time (seconds) = 0.408 

Total DRAM available = 16384.000 MB.
DRAM currently available =  222.344 MB.
Maximum ngspice program size =   13.141 MB.
Current ngspice program size =   13.141 MB.

