
Note: No compatibility mode selected!


Circuit: INV seed characterization sample 4003040

Doing analysis at TEMP = 41.332700 and TNOM = 27.000000

Using SPARSE 1.3 as Direct Linear Solver

Initial Transient Solution
--------------------------

Node                                   Voltage
----                                   -------
vdd                                    1.83233
in                                           0
out                                    1.83233
vin#branch                                   0
vdd#branch                        -2.88543e-11

 Reference value :  6.10964e-08
No. of Data Rows : 60047

  Measurements for Transient Analysis

tphl                =  2.15354e-10 targ=  2.40103e-09 trig=  2.18568e-09
tplh                =  2.88335e-10 targ=  2.28454e-08 trig=  2.25570e-08
i_vdd_avg           =  -4.73852e-06 from=  5.00000e-09 to=  1.10002e-07
power_avg_uw        =  8.68253e+00


Total analysis time (seconds) = 0.342381

Total elapsed time (seconds) = 0.420 

Total DRAM available = 16384.000 MB.
DRAM currently available =  252.453 MB.
Maximum ngspice program size =   12.562 MB.
Current ngspice program size =   12.312 MB.

