
Note: No compatibility mode selected!


Circuit: INV seed characterization sample 4003038

Doing analysis at TEMP = -14.621600 and TNOM = 27.000000

Using SPARSE 1.3 as Direct Linear Solver

Initial Transient Solution
--------------------------

Node                                   Voltage
----                                   -------
vdd                                    1.69359
in                                           0
out                                    1.69359
vin#branch                                   0
vdd#branch                        -2.05636e-12

 Reference value :  6.11431e-08
No. of Data Rows : 60044

  Measurements for Transient Analysis

tphl                =  1.55834e-10 targ=  2.17087e-09 trig=  2.01503e-09
tplh                =  1.51296e-10 targ=  2.21964e-08 trig=  2.20451e-08
i_vdd_avg           =  -5.38325e-06 from=  5.00000e-09 to=  1.10001e-07
power_avg_uw        =  9.11702e+00


Total analysis time (seconds) = 0.341071

Total elapsed time (seconds) = 0.419 

Total DRAM available = 16384.000 MB.
DRAM currently available =  252.453 MB.
Maximum ngspice program size =   12.562 MB.
Current ngspice program size =   11.625 MB.

