
Note: No compatibility mode selected!


Circuit: XOR2 seed characterization sample 4003037

Doing analysis at TEMP = 94.473100 and TNOM = 27.000000

Using SPARSE 1.3 as Direct Linear Solver

Initial Transient Solution
--------------------------

Node                                   Voltage
----                                   -------
vdd                                    1.95546
in                                           0
b                                      1.95546
abar                                   1.95546
bbar                               6.76793e-08
out                                    1.95546
vb#branch                                    0
vin#branch                         1.00422e-09
vdd#branch                        -1.79675e-09

 Reference value :  2.15619e-08
 Reference value :  5.22759e-08
 Reference value :  8.85739e-08
No. of Data Rows : 60041

  Measurements for Transient Analysis

tphl                =  2.49259e-10 targ=  2.27169e-09 trig=  2.02243e-09
tplh                =  2.45556e-10 targ=  2.23129e-08 trig=  2.20673e-08
i_vdd_avg           =  -7.72998e-06 from=  5.00000e-09 to=  1.10001e-07
power_avg_uw        =  1.51157e+01


Total analysis time (seconds) = 0.854952

Total elapsed time (seconds) = 0.935 

Total DRAM available = 16384.000 MB.
DRAM currently available =  233.781 MB.
Maximum ngspice program size =   12.578 MB.
Current ngspice program size =   11.969 MB.

