
Note: No compatibility mode selected!


Circuit: NOR2 seed characterization sample 4003017

Doing analysis at TEMP = 19.020500 and TNOM = 27.000000

Using SPARSE 1.3 as Direct Linear Solver

Initial Transient Solution
--------------------------

Node                                   Voltage
----                                   -------
vdd                                     1.7663
in                                           0
out                                     1.7663
pmid                                    1.7663
vin#branch                                   0
vdd#branch                        -1.54172e-11

 Reference value :  3.85747e-08
 Reference value :  9.17099e-08
No. of Data Rows : 60041

  Measurements for Transient Analysis

tphl                =  1.57891e-10 targ=  2.33532e-09 trig=  2.17743e-09
tplh                =  4.23472e-10 targ=  2.29558e-08 trig=  2.25323e-08
i_vdd_avg           =  -5.93091e-06 from=  5.00000e-09 to=  1.10001e-07
power_avg_uw        =  1.04758e+01


Total analysis time (seconds) = 0.531651

Total elapsed time (seconds) = 0.611 

Total DRAM available = 16384.000 MB.
DRAM currently available =  212.375 MB.
Maximum ngspice program size =   12.562 MB.
Current ngspice program size =   11.734 MB.

