
Note: No compatibility mode selected!


Circuit: XOR2 seed characterization sample 4003029

Doing analysis at TEMP = 27.327600 and TNOM = 27.000000

Using SPARSE 1.3 as Direct Linear Solver

Initial Transient Solution
--------------------------

Node                                   Voltage
----                                   -------
vdd                                    1.65183
in                                           0
b                                      1.65183
abar                                   1.65183
bbar                                3.0738e-09
out                                    1.65183
vb#branch                                    0
vin#branch                         7.22363e-12
vdd#branch                        -1.96666e-11

 Reference value :  2.57899e-08
 Reference value :  6.00995e-08
 Reference value :  9.67735e-08
No. of Data Rows : 60044

  Measurements for Transient Analysis

tphl                =  2.31510e-10 targ=  2.28774e-09 trig=  2.05623e-09
tplh                =  3.29673e-10 targ=  2.24984e-08 trig=  2.21687e-08
i_vdd_avg           =  -2.15763e-06 from=  5.00000e-09 to=  1.10002e-07
power_avg_uw        =  3.56404e+00


Total analysis time (seconds) = 0.809418

Total elapsed time (seconds) = 0.884 

Total DRAM available = 16384.000 MB.
DRAM currently available =  220.531 MB.
Maximum ngspice program size =   12.984 MB.
Current ngspice program size =   12.281 MB.

