
Note: No compatibility mode selected!


Circuit: INV seed characterization sample 4003024

Doing analysis at TEMP = 62.112900 and TNOM = 27.000000

Using SPARSE 1.3 as Direct Linear Solver

Initial Transient Solution
--------------------------

Node                                   Voltage
----                                   -------
vdd                                    1.95303
in                                           0
out                                    1.95303
vin#branch                                   0
vdd#branch                        -7.80281e-11

 Reference value :  5.88411e-08
No. of Data Rows : 60044

  Measurements for Transient Analysis

tphl                =  2.04417e-10 targ=  2.25247e-09 trig=  2.04805e-09
tplh                =  2.43938e-10 targ=  2.23881e-08 trig=  2.21442e-08
i_vdd_avg           =  -5.15390e-06 from=  5.00000e-09 to=  1.10001e-07
power_avg_uw        =  1.00657e+01


Total analysis time (seconds) = 0.351668

Total elapsed time (seconds) = 0.430 

Total DRAM available = 16384.000 MB.
DRAM currently available =  212.375 MB.
Maximum ngspice program size =   12.562 MB.
Current ngspice program size =   11.844 MB.

