
Note: No compatibility mode selected!


Circuit: INV seed characterization sample 4003042

Doing analysis at TEMP = 12.597700 and TNOM = 27.000000

Using SPARSE 1.3 as Direct Linear Solver

Initial Transient Solution
--------------------------

Node                                   Voltage
----                                   -------
vdd                                     1.7232
in                                           0
out                                     1.7232
vin#branch                                   0
vdd#branch                        -4.22472e-12

 Reference value :  6.53219e-08
No. of Data Rows : 60044

  Measurements for Transient Analysis

tphl                =  2.55523e-10 targ=  2.49375e-09 trig=  2.23823e-09
tplh                =  2.84963e-10 targ=  2.29996e-08 trig=  2.27147e-08
i_vdd_avg           =  -3.95139e-06 from=  5.00000e-09 to=  1.10002e-07
power_avg_uw        =  6.80903e+00


Total analysis time (seconds) = 0.322486

Total elapsed time (seconds) = 0.397 

Total DRAM available = 16384.000 MB.
DRAM currently available =  214.047 MB.
Maximum ngspice program size =   12.562 MB.
Current ngspice program size =   11.875 MB.

