
Note: No compatibility mode selected!


Circuit: NOR2 seed characterization sample 4023026

Doing analysis at TEMP = 59.842800 and TNOM = 27.000000

Using SPARSE 1.3 as Direct Linear Solver

Initial Transient Solution
--------------------------

Node                                   Voltage
----                                   -------
vdd                                    1.83253
in                                           0
out                                    1.83253
pmid                                   1.83253
vin#branch                                   0
vdd#branch                         -1.9491e-11

 Reference value :  4.03530e-08
 Reference value :  9.45260e-08
No. of Data Rows : 60047

  Measurements for Transient Analysis

tphl                =  1.67576e-10 targ=  2.34808e-09 trig=  2.18050e-09
tplh                =  4.57669e-10 targ=  2.29992e-08 trig=  2.25415e-08
i_vdd_avg           =  -5.55150e-06 from=  5.00000e-09 to=  1.10001e-07
power_avg_uw        =  1.01733e+01


Total analysis time (seconds) = 0.538774

Total elapsed time (seconds) = 0.616 

Total DRAM available = 16384.000 MB.
DRAM currently available =  309.219 MB.
Maximum ngspice program size =   12.562 MB.
Current ngspice program size =   11.938 MB.

