
Note: No compatibility mode selected!


Circuit: NAND2 seed characterization sample 4023036

Doing analysis at TEMP = -19.650000 and TNOM = 27.000000

Using SPARSE 1.3 as Direct Linear Solver

Initial Transient Solution
--------------------------

Node                                   Voltage
----                                   -------
vdd                                    1.90308
in                                           0
out                                    1.90308
nmid                                 0.0019904
vin#branch                                   0
vdd#branch                        -1.91884e-12

 Reference value :  4.17529e-08
 Reference value :  1.00052e-07
No. of Data Rows : 60041

  Measurements for Transient Analysis

tphl                =  4.77365e-10 targ=  2.69283e-09 trig=  2.21547e-09
tplh                =  2.18794e-10 targ=  2.28652e-08 trig=  2.26464e-08
i_vdd_avg           =  -5.79690e-06 from=  5.00000e-09 to=  1.10001e-07
power_avg_uw        =  1.10320e+01


Total analysis time (seconds) = 0.498055

Total elapsed time (seconds) = 0.575 

Total DRAM available = 16384.000 MB.
DRAM currently available =  312.750 MB.
Maximum ngspice program size =   12.562 MB.
Current ngspice program size =   11.750 MB.

