
Note: No compatibility mode selected!


Circuit: XOR2 seed characterization sample 4023046

Doing analysis at TEMP = 7.638800 and TNOM = 27.000000

Using SPARSE 1.3 as Direct Linear Solver

Initial Transient Solution
--------------------------

Node                                   Voltage
----                                   -------
vdd                                    1.80157
in                                           0
b                                      1.80157
abar                                   1.80157
bbar                               1.63273e-09
out                                    1.80157
vb#branch                                    0
vin#branch                         1.94834e-12
vdd#branch                        -1.11107e-11

 Reference value :  2.61326e-08
 Reference value :  6.07698e-08
 Reference value :  9.96598e-08
No. of Data Rows : 60041

  Measurements for Transient Analysis

tphl                =  3.09360e-10 targ=  2.46075e-09 trig=  2.15139e-09
tplh                =  4.14993e-10 targ=  2.28692e-08 trig=  2.24542e-08
i_vdd_avg           =  -4.36899e-06 from=  5.00000e-09 to=  1.10001e-07
power_avg_uw        =  7.87104e+00


Total analysis time (seconds) = 0.800166

Total elapsed time (seconds) = 0.874 

Total DRAM available = 16384.000 MB.
DRAM currently available =  301.078 MB.
Maximum ngspice program size =   12.578 MB.
Current ngspice program size =   11.625 MB.

