
Note: No compatibility mode selected!


Circuit: NOR2 seed characterization sample 4023020

Doing analysis at TEMP = 1.144840 and TNOM = 27.000000

Using SPARSE 1.3 as Direct Linear Solver

Initial Transient Solution
--------------------------

Node                                   Voltage
----                                   -------
vdd                                    1.79701
in                                           0
out                                    1.79701
pmid                                   1.79701
vin#branch                                   0
vdd#branch                        -3.74964e-12

 Reference value :  4.50849e-08
 Reference value :  1.04927e-07
No. of Data Rows : 60044

  Measurements for Transient Analysis

tphl                =  1.40369e-10 targ=  2.24834e-09 trig=  2.10797e-09
tplh                =  7.32138e-10 targ=  2.30560e-08 trig=  2.23239e-08
i_vdd_avg           =  -5.35202e-06 from=  5.00000e-09 to=  1.10001e-07
power_avg_uw        =  9.61762e+00


Total analysis time (seconds) = 0.475022

Total elapsed time (seconds) = 0.549 

Total DRAM available = 16384.000 MB.
DRAM currently available =  332.750 MB.
Maximum ngspice program size =   12.562 MB.
Current ngspice program size =   11.719 MB.

