
Note: No compatibility mode selected!


Circuit: XOR2 seed characterization sample 4023005

Doing analysis at TEMP = 82.905900 and TNOM = 27.000000

Using SPARSE 1.3 as Direct Linear Solver

Initial Transient Solution
--------------------------

Node                                   Voltage
----                                   -------
vdd                                    1.62958
in                                           0
b                                      1.62958
abar                                   1.62958
bbar                               7.06236e-09
out                                    1.62958
vb#branch                                    0
vin#branch                         1.47412e-11
vdd#branch                        -3.27674e-11

 Reference value :  2.56233e-08
 Reference value :  5.95362e-08
 Reference value :  9.35442e-08
No. of Data Rows : 60047

  Measurements for Transient Analysis

tphl                =  6.97146e-10 targ=  2.93573e-09 trig=  2.23858e-09
tplh                =  7.69051e-10 targ=  2.34848e-08 trig=  2.27157e-08
i_vdd_avg           =  -3.93618e-06 from=  5.00000e-09 to=  1.10001e-07
power_avg_uw        =  6.41433e+00


Total analysis time (seconds) = 0.839237

Total elapsed time (seconds) = 0.913 

Total DRAM available = 16384.000 MB.
DRAM currently available =  329.688 MB.
Maximum ngspice program size =   12.578 MB.
Current ngspice program size =   11.938 MB.

