
Note: No compatibility mode selected!


Circuit: INV seed characterization sample 4023034

Doing analysis at TEMP = 22.125500 and TNOM = 27.000000

Using SPARSE 1.3 as Direct Linear Solver

Initial Transient Solution
--------------------------

Node                                   Voltage
----                                   -------
vdd                                    1.71214
in                                           0
out                                    1.71214
vin#branch                                   0
vdd#branch                        -1.81323e-12

 Reference value :  6.52032e-08
No. of Data Rows : 60044

  Measurements for Transient Analysis

tphl                =  1.77415e-10 targ=  2.23046e-09 trig=  2.05304e-09
tplh                =  3.02043e-10 targ=  2.24612e-08 trig=  2.21591e-08
i_vdd_avg           =  -8.75228e-07 from=  5.00000e-09 to=  1.10001e-07
power_avg_uw        =  1.49851e+00


Total analysis time (seconds) = 0.316774

Total elapsed time (seconds) = 0.393 

Total DRAM available = 16384.000 MB.
DRAM currently available =  312.750 MB.
Maximum ngspice program size =   12.562 MB.
Current ngspice program size =   11.969 MB.

