
Note: No compatibility mode selected!


Circuit: XOR2 seed characterization sample 4023047

Doing analysis at TEMP = 19.920800 and TNOM = 27.000000

Using SPARSE 1.3 as Direct Linear Solver

Initial Transient Solution
--------------------------

Node                                   Voltage
----                                   -------
vdd                                     1.6553
in                                           0
b                                       1.6553
abar                                    1.6553
bbar                               1.15569e-09
out                                     1.6553
vb#branch                                    0
vin#branch                         2.21318e-12
vdd#branch                         -1.0965e-11

 Reference value :  2.55925e-08
 Reference value :  5.99198e-08
 Reference value :  9.85318e-08
No. of Data Rows : 60041

  Measurements for Transient Analysis

tphl                =  3.06270e-10 targ=  2.45266e-09 trig=  2.14639e-09
tplh                =  4.78814e-10 targ=  2.29180e-08 trig=  2.24392e-08
i_vdd_avg           =  -4.94497e-06 from=  5.00000e-09 to=  1.10001e-07
power_avg_uw        =  8.18542e+00


Total analysis time (seconds) = 0.805544

Total elapsed time (seconds) = 0.880 

Total DRAM available = 16384.000 MB.
DRAM currently available =  304.203 MB.
Maximum ngspice program size =   12.578 MB.
Current ngspice program size =   11.750 MB.

