
Note: No compatibility mode selected!


Circuit: INV seed characterization sample 4023022

Doing analysis at TEMP = 86.434000 and TNOM = 27.000000

Using SPARSE 1.3 as Direct Linear Solver

Initial Transient Solution
--------------------------

Node                                   Voltage
----                                   -------
vdd                                     1.9022
in                                           0
out                                     1.9022
vin#branch                                   0
vdd#branch                        -3.24773e-11

 Reference value :  6.54140e-08
No. of Data Rows : 60044

  Measurements for Transient Analysis

tphl                =  2.39834e-10 targ=  2.25659e-09 trig=  2.01676e-09
tplh                =  2.46915e-10 targ=  2.22972e-08 trig=  2.20503e-08
i_vdd_avg           =  -5.89860e-06 from=  5.00000e-09 to=  1.10000e-07
power_avg_uw        =  1.12203e+01


Total analysis time (seconds) = 0.314169

Total elapsed time (seconds) = 0.391 

Total DRAM available = 16384.000 MB.
DRAM currently available =  297.781 MB.
Maximum ngspice program size =   13.234 MB.
Current ngspice program size =   13.234 MB.

