
Note: No compatibility mode selected!


Circuit: NAND2 seed characterization sample 4023044

Doing analysis at TEMP = 32.504300 and TNOM = 27.000000

Using SPARSE 1.3 as Direct Linear Solver

Initial Transient Solution
--------------------------

Node                                   Voltage
----                                   -------
vdd                                    1.70328
in                                           0
out                                    1.70328
nmid                                  0.039864
vin#branch                                   0
vdd#branch                        -1.99102e-12

 Reference value :  4.17598e-08
 Reference value :  9.71484e-08
No. of Data Rows : 60047

  Measurements for Transient Analysis

tphl                =  1.78732e-10 targ=  2.20842e-09 trig=  2.02969e-09
tplh                =  8.47579e-11 targ=  2.21738e-08 trig=  2.20891e-08
i_vdd_avg           =  -2.70219e-06 from=  5.00000e-09 to=  1.10002e-07
power_avg_uw        =  4.60258e+00


Total analysis time (seconds) = 0.523992

Total elapsed time (seconds) = 0.600 

Total DRAM available = 16384.000 MB.
DRAM currently available =  329.281 MB.
Maximum ngspice program size =   12.562 MB.
Current ngspice program size =   12.078 MB.

