
Note: No compatibility mode selected!


Circuit: NOR2 seed characterization sample 4023004

Doing analysis at TEMP = 9.726210 and TNOM = 27.000000

Using SPARSE 1.3 as Direct Linear Solver

Initial Transient Solution
--------------------------

Node                                   Voltage
----                                   -------
vdd                                    1.94878
in                                           0
out                                    1.94878
pmid                                   1.94878
vin#branch                                   0
vdd#branch                        -3.99449e-12

 Reference value :  3.96449e-08
 Reference value :  9.18870e-08
No. of Data Rows : 60044

  Measurements for Transient Analysis

tphl                =  2.61330e-10 targ=  2.34231e-09 trig=  2.08098e-09
tplh                =  1.32271e-09 targ=  2.35656e-08 trig=  2.22429e-08
i_vdd_avg           =  -3.35065e-06 from=  5.00000e-09 to=  1.10001e-07
power_avg_uw        =  6.52968e+00


Total analysis time (seconds) = 0.552309

Total elapsed time (seconds) = 0.629 

Total DRAM available = 16384.000 MB.
DRAM currently available =  320.875 MB.
Maximum ngspice program size =   12.562 MB.
Current ngspice program size =   11.969 MB.

