
Note: No compatibility mode selected!


Circuit: NAND2 seed characterization sample 4023015

Doing analysis at TEMP = 2.166470 and TNOM = 27.000000

Using SPARSE 1.3 as Direct Linear Solver

Initial Transient Solution
--------------------------

Node                                   Voltage
----                                   -------
vdd                                    1.91597
in                                           0
out                                    1.91597
nmid                                0.00637718
vin#branch                                   0
vdd#branch                        -1.94403e-12

 Reference value :  4.06165e-08
 Reference value :  9.63248e-08
No. of Data Rows : 60044

  Measurements for Transient Analysis

tphl                =  4.13787e-10 targ=  2.66367e-09 trig=  2.24988e-09
tplh                =  2.20630e-10 targ=  2.29703e-08 trig=  2.27496e-08
i_vdd_avg           =  -2.02715e-06 from=  5.00000e-09 to=  1.10001e-07
power_avg_uw        =  3.88396e+00


Total analysis time (seconds) = 0.512983

Total elapsed time (seconds) = 0.590 

Total DRAM available = 16384.000 MB.
DRAM currently available =  328.312 MB.
Maximum ngspice program size =   12.891 MB.
Current ngspice program size =   12.891 MB.

