
Note: No compatibility mode selected!


Circuit: NAND2 seed characterization sample 4023028

Doing analysis at TEMP = 25.957400 and TNOM = 27.000000

Using SPARSE 1.3 as Direct Linear Solver

Initial Transient Solution
--------------------------

Node                                   Voltage
----                                   -------
vdd                                    1.85844
in                                           0
out                                    1.85844
nmid                                 0.0409107
vin#branch                                   0
vdd#branch                        -2.12013e-12

 Reference value :  4.04762e-08
 Reference value :  9.54066e-08
No. of Data Rows : 60044

  Measurements for Transient Analysis

tphl                =  2.86002e-10 targ=  2.51180e-09 trig=  2.22579e-09
tplh                =  1.96256e-10 targ=  2.28736e-08 trig=  2.26774e-08
i_vdd_avg           =  -5.20902e-06 from=  5.00000e-09 to=  1.10000e-07
power_avg_uw        =  9.68066e+00


Total analysis time (seconds) = 0.532076

Total elapsed time (seconds) = 0.610 

Total DRAM available = 16384.000 MB.
DRAM currently available =  306.172 MB.
Maximum ngspice program size =   13.000 MB.
Current ngspice program size =   13.000 MB.

