
Note: No compatibility mode selected!


Circuit: INV seed characterization sample 4023017

Doing analysis at TEMP = 51.592400 and TNOM = 27.000000

Using SPARSE 1.3 as Direct Linear Solver

Initial Transient Solution
--------------------------

Node                                   Voltage
----                                   -------
vdd                                    1.84001
in                                           0
out                                    1.84001
vin#branch                                   0
vdd#branch                        -3.59312e-12

 Reference value :  7.20923e-08
No. of Data Rows : 60041

  Measurements for Transient Analysis

tphl                =  2.59408e-10 targ=  2.37274e-09 trig=  2.11334e-09
tplh                =  2.49149e-10 targ=  2.25892e-08 trig=  2.23400e-08
i_vdd_avg           =  -3.05739e-06 from=  5.00000e-09 to=  1.10000e-07
power_avg_uw        =  5.62563e+00


Total analysis time (seconds) = 0.298662

Total elapsed time (seconds) = 0.370 

Total DRAM available = 16384.000 MB.
DRAM currently available =  332.750 MB.
Maximum ngspice program size =   12.562 MB.
Current ngspice program size =   11.844 MB.

