
Note: No compatibility mode selected!


Circuit: XOR2 seed characterization sample 4023032

Doing analysis at TEMP = 75.994700 and TNOM = 27.000000

Using SPARSE 1.3 as Direct Linear Solver

Initial Transient Solution
--------------------------

Node                                   Voltage
----                                   -------
vdd                                    1.91241
in                                           0
b                                      1.91241
abar                                   1.91241
bbar                               4.05893e-09
out                                    1.91241
vb#branch                                    0
vin#branch                         2.11982e-11
vdd#branch                        -4.56041e-11

 Reference value :  2.23714e-08
 Reference value :  5.34082e-08
 Reference value :  8.76702e-08
No. of Data Rows : 60047

  Measurements for Transient Analysis

tphl                =  4.64804e-10 targ=  2.54140e-09 trig=  2.07660e-09
tplh                =  4.57276e-10 targ=  2.26871e-08 trig=  2.22298e-08
i_vdd_avg           =  -7.13079e-06 from=  5.00000e-09 to=  1.10001e-07
power_avg_uw        =  1.36370e+01


Total analysis time (seconds) = 0.882718

Total elapsed time (seconds) = 0.961 

Total DRAM available = 16384.000 MB.
DRAM currently available =  310.859 MB.
Maximum ngspice program size =   13.219 MB.
Current ngspice program size =   13.219 MB.

