
Note: No compatibility mode selected!


Circuit: NOR2 seed characterization sample 4023018

Doing analysis at TEMP = -18.353000 and TNOM = 27.000000

Using SPARSE 1.3 as Direct Linear Solver

Initial Transient Solution
--------------------------

Node                                   Voltage
----                                   -------
vdd                                    1.64476
in                                           0
out                                    1.64476
pmid                                   1.64476
vin#branch                                   0
vdd#branch                        -3.32328e-12

 Reference value :  4.54603e-08
 Reference value :  1.05288e-07
No. of Data Rows : 60047

  Measurements for Transient Analysis

tphl                =  1.43420e-10 targ=  2.27008e-09 trig=  2.12666e-09
tplh                =  5.51960e-10 targ=  2.29319e-08 trig=  2.23800e-08
i_vdd_avg           =  -3.51651e-06 from=  5.00000e-09 to=  1.10002e-07
power_avg_uw        =  5.78381e+00


Total analysis time (seconds) = 0.47674

Total elapsed time (seconds) = 0.548 

Total DRAM available = 16384.000 MB.
DRAM currently available =  332.750 MB.
Maximum ngspice program size =   12.562 MB.
Current ngspice program size =   11.781 MB.

