
Note: No compatibility mode selected!


Circuit: NAND2 seed characterization sample 4023030

Doing analysis at TEMP = 81.901900 and TNOM = 27.000000

Using SPARSE 1.3 as Direct Linear Solver

Initial Transient Solution
--------------------------

Node                                   Voltage
----                                   -------
vdd                                     1.7133
in                                           0
out                                     1.7133
nmid                                  0.050717
vin#branch                                   0
vdd#branch                        -5.96584e-12

 Reference value :  3.97420e-08
 Reference value :  9.35085e-08
No. of Data Rows : 60047

  Measurements for Transient Analysis

tphl                =  5.57458e-10 targ=  2.63520e-09 trig=  2.07774e-09
tplh                =  1.86844e-10 targ=  2.24201e-08 trig=  2.22332e-08
i_vdd_avg           =  -5.80896e-06 from=  5.00000e-09 to=  1.10002e-07
power_avg_uw        =  9.95249e+00


Total analysis time (seconds) = 0.528855

Total elapsed time (seconds) = 0.604 

Total DRAM available = 16384.000 MB.
DRAM currently available =  309.219 MB.
Maximum ngspice program size =   12.562 MB.
Current ngspice program size =   11.875 MB.

