
Note: No compatibility mode selected!


Circuit: NOR2 seed characterization sample 4000011

Doing analysis at TEMP = 40.698900 and TNOM = 27.000000

Using SPARSE 1.3 as Direct Linear Solver

Initial Transient Solution
--------------------------

Node                                   Voltage
----                                   -------
vdd                                    1.71387
in                                           0
out                                    1.71387
pmid                                   1.71387
vin#branch                                   0
vdd#branch                        -7.31353e-11

 Reference value :  4.90830e-08
 Reference value :  1.10677e-07
No. of Data Rows : 60044

  Measurements for Transient Analysis

tphl                =  1.13581e-10 targ=  2.27456e-09 trig=  2.16098e-09
tplh                =  3.75105e-10 targ=  2.28581e-08 trig=  2.24830e-08
i_vdd_avg           =  -4.37651e-06 from=  5.00000e-09 to=  1.10001e-07
power_avg_uw        =  7.50077e+00


Total analysis time (seconds) = 0.466917

Total elapsed time (seconds) = 0.533 

Total DRAM available = 16384.000 MB.
DRAM currently available =  259.688 MB.
Maximum ngspice program size =   12.562 MB.
Current ngspice program size =   12.281 MB.

