
Note: No compatibility mode selected!


Circuit: NOR2 seed characterization sample 4000039

Doing analysis at TEMP = 1.379810 and TNOM = 27.000000

Using SPARSE 1.3 as Direct Linear Solver

Initial Transient Solution
--------------------------

Node                                   Voltage
----                                   -------
vdd                                    1.79925
in                                           0
out                                    1.79925
pmid                                   1.79925
vin#branch                                   0
vdd#branch                            -4.4e-12

 Reference value :  3.93711e-08
 Reference value :  9.39211e-08
No. of Data Rows : 60044

  Measurements for Transient Analysis

tphl                =  6.04311e-11 targ=  2.19546e-09 trig=  2.13503e-09
tplh                =  1.62235e-10 targ=  2.25673e-08 trig=  2.24051e-08
i_vdd_avg           =  -5.13004e-07 from=  5.00000e-09 to=  1.10001e-07
power_avg_uw        =  9.23022e-01


Total analysis time (seconds) = 0.526724

Total elapsed time (seconds) = 0.602 

Total DRAM available = 16384.000 MB.
DRAM currently available =  361.609 MB.
Maximum ngspice program size =   12.609 MB.
Current ngspice program size =   11.672 MB.

