
Note: No compatibility mode selected!


Circuit: INV seed characterization sample 4000040

Doing analysis at TEMP = 71.303600 and TNOM = 27.000000

Using SPARSE 1.3 as Direct Linear Solver

Initial Transient Solution
--------------------------

Node                                   Voltage
----                                   -------
vdd                                    1.65215
in                                           0
out                                    1.65215
vin#branch                                   0
vdd#branch                        -2.60804e-10

 Reference value :  6.30582e-08
No. of Data Rows : 60041

  Measurements for Transient Analysis

tphl                =  1.20809e-10 targ=  2.21310e-09 trig=  2.09229e-09
tplh                =  1.50481e-10 targ=  2.24274e-08 trig=  2.22769e-08
i_vdd_avg           =  -3.68153e-06 from=  5.00000e-09 to=  1.10000e-07
power_avg_uw        =  6.08243e+00


Total analysis time (seconds) = 0.332414

Total elapsed time (seconds) = 0.408 

Total DRAM available = 16384.000 MB.
DRAM currently available =  361.609 MB.
Maximum ngspice program size =   12.562 MB.
Current ngspice program size =   11.844 MB.

