
Note: No compatibility mode selected!


Circuit: INV seed characterization sample 4000036

Doing analysis at TEMP = 38.278100 and TNOM = 27.000000

Using SPARSE 1.3 as Direct Linear Solver

Initial Transient Solution
--------------------------

Node                                   Voltage
----                                   -------
vdd                                    1.73297
in                                           0
out                                    1.73297
vin#branch                                   0
vdd#branch                        -1.32749e-11

 Reference value :  7.40392e-08
No. of Data Rows : 60044

  Measurements for Transient Analysis

tphl                =  7.24728e-11 targ=  2.15752e-09 trig=  2.08504e-09
tplh                =  8.38250e-11 targ=  2.23390e-08 trig=  2.22551e-08
i_vdd_avg           =  -6.85962e-07 from=  5.00000e-09 to=  1.10001e-07
power_avg_uw        =  1.18875e+00


Total analysis time (seconds) = 0.29326

Total elapsed time (seconds) = 0.362 

Total DRAM available = 16384.000 MB.
DRAM currently available =  396.812 MB.
Maximum ngspice program size =   12.562 MB.
Current ngspice program size =   11.938 MB.

