
Note: No compatibility mode selected!


Circuit: NAND2 seed characterization sample 4000044

Doing analysis at TEMP = 56.783400 and TNOM = 27.000000

Using SPARSE 1.3 as Direct Linear Solver

Initial Transient Solution
--------------------------

Node                                   Voltage
----                                   -------
vdd                                    1.82927
in                                           0
out                                    1.82927
nmid                                 0.0564502
vin#branch                                   0
vdd#branch                        -1.11207e-11

 Reference value :  4.54286e-08
 Reference value :  1.04362e-07
No. of Data Rows : 60044

  Measurements for Transient Analysis

tphl                =  4.55208e-10 targ=  2.67698e-09 trig=  2.22178e-09
tplh                =  2.18355e-10 targ=  2.28837e-08 trig=  2.26653e-08
i_vdd_avg           =  -5.88199e-06 from=  5.00000e-09 to=  1.10000e-07
power_avg_uw        =  1.07597e+01


Total analysis time (seconds) = 0.496317

Total elapsed time (seconds) = 0.568 

Total DRAM available = 16384.000 MB.
DRAM currently available =  368.219 MB.
Maximum ngspice program size =   12.562 MB.
Current ngspice program size =   11.969 MB.

