
Note: No compatibility mode selected!


Circuit: XOR2 seed characterization sample 4000009

Doing analysis at TEMP = 53.139500 and TNOM = 27.000000

Using SPARSE 1.3 as Direct Linear Solver

Initial Transient Solution
--------------------------

Node                                   Voltage
----                                   -------
vdd                                    1.70098
in                                           0
b                                      1.70098
abar                                   1.70098
bbar                               7.17438e-09
out                                    1.70098
vb#branch                                    0
vin#branch                         2.93255e-11
vdd#branch                        -5.83989e-11

 Reference value :  2.79482e-08
 Reference value :  6.36022e-08
 Reference value :  1.00498e-07
No. of Data Rows : 60041

  Measurements for Transient Analysis

tphl                =  3.45646e-10 targ=  2.43496e-09 trig=  2.08931e-09
tplh                =  4.34977e-10 targ=  2.27029e-08 trig=  2.22679e-08
i_vdd_avg           =  -2.96551e-06 from=  5.00000e-09 to=  1.10000e-07
power_avg_uw        =  5.04426e+00


Total analysis time (seconds) = 0.801976

Total elapsed time (seconds) = 0.870 

Total DRAM available = 16384.000 MB.
DRAM currently available =  246.922 MB.
Maximum ngspice program size =   12.578 MB.
Current ngspice program size =   11.969 MB.

