
Note: No compatibility mode selected!


Circuit: XOR2 seed characterization sample 4000038

Doing analysis at TEMP = 49.524100 and TNOM = 27.000000

Using SPARSE 1.3 as Direct Linear Solver

Initial Transient Solution
--------------------------

Node                                   Voltage
----                                   -------
vdd                                    1.75548
in                                           0
b                                      1.75548
abar                                   1.75548
bbar                               4.03194e-09
out                                    1.75548
vb#branch                                    0
vin#branch                          9.0299e-11
vdd#branch                        -1.68134e-10

 Reference value :  2.25915e-08
 Reference value :  5.45932e-08
 Reference value :  9.09532e-08
No. of Data Rows : 60044

  Measurements for Transient Analysis

tphl                =  2.22297e-10 targ=  2.32242e-09 trig=  2.10012e-09
tplh                =  2.29190e-10 targ=  2.25295e-08 trig=  2.23004e-08
i_vdd_avg           =  -5.79549e-06 from=  5.00000e-09 to=  1.10001e-07
power_avg_uw        =  1.01739e+01


Total analysis time (seconds) = 0.843078

Total elapsed time (seconds) = 0.921 

Total DRAM available = 16384.000 MB.
DRAM currently available =  361.609 MB.
Maximum ngspice program size =   12.578 MB.
Current ngspice program size =   11.656 MB.

