
Note: No compatibility mode selected!


Circuit: XOR2 seed characterization sample 4000026

Doing analysis at TEMP = 97.588000 and TNOM = 27.000000

Using SPARSE 1.3 as Direct Linear Solver

Initial Transient Solution
--------------------------

Node                                   Voltage
----                                   -------
vdd                                     1.9136
in                                           0
b                                       1.9136
abar                                    1.9136
bbar                               8.34232e-08
out                                     1.9136
vb#branch                                    0
vin#branch                         8.58403e-10
vdd#branch                        -1.53281e-09

 Reference value :  2.58206e-08
 Reference value :  6.05598e-08
 Reference value :  9.94658e-08
No. of Data Rows : 60041

  Measurements for Transient Analysis

tphl                =  3.83091e-10 targ=  2.62048e-09 trig=  2.23739e-09
tplh                =  3.98872e-10 targ=  2.31110e-08 trig=  2.27122e-08
i_vdd_avg           =  -7.30761e-06 from=  5.00000e-09 to=  1.10001e-07
power_avg_uw        =  1.39838e+01


Total analysis time (seconds) = 0.786143

Total elapsed time (seconds) = 0.861 

Total DRAM available = 16384.000 MB.
DRAM currently available =  387.609 MB.
Maximum ngspice program size =   12.578 MB.
Current ngspice program size =   11.625 MB.

