
Note: No compatibility mode selected!


Circuit: NOR2 seed characterization sample 4000030

Doing analysis at TEMP = 26.298700 and TNOM = 27.000000

Using SPARSE 1.3 as Direct Linear Solver

Initial Transient Solution
--------------------------

Node                                   Voltage
----                                   -------
vdd                                    1.89045
in                                           0
out                                    1.89045
pmid                                   1.89045
vin#branch                                   0
vdd#branch                        -1.91363e-11

 Reference value :  4.70608e-08
 Reference value :  1.08357e-07
No. of Data Rows : 60044

  Measurements for Transient Analysis

tphl                =  9.42498e-11 targ=  2.18014e-09 trig=  2.08589e-09
tplh                =  4.19919e-10 targ=  2.26776e-08 trig=  2.22577e-08
i_vdd_avg           =  -3.39866e-06 from=  5.00000e-09 to=  1.10001e-07
power_avg_uw        =  6.42501e+00


Total analysis time (seconds) = 0.472595

Total elapsed time (seconds) = 0.541 

Total DRAM available = 16384.000 MB.
DRAM currently available =  359.969 MB.
Maximum ngspice program size =   12.562 MB.
Current ngspice program size =   11.656 MB.

