
Note: No compatibility mode selected!


Circuit: XOR2 seed characterization sample 4000003

Doing analysis at TEMP = 70.129500 and TNOM = 27.000000

Using SPARSE 1.3 as Direct Linear Solver

Initial Transient Solution
--------------------------

Node                                   Voltage
----                                   -------
vdd                                    1.72363
in                                           0
b                                      1.72363
abar                                   1.72363
bbar                               1.11828e-08
out                                    1.72363
vb#branch                                    0
vin#branch                         1.87225e-10
vdd#branch                        -3.39357e-10

 Reference value :  4.59161e-08
 Reference value :  1.04359e-07
No. of Data Rows : 60047

  Measurements for Transient Analysis

tphl                =  2.43119e-10 targ=  2.48667e-09 trig=  2.24355e-09
tplh                =  3.38233e-10 targ=  2.30689e-08 trig=  2.27307e-08
i_vdd_avg           =  -3.11244e-06 from=  5.00000e-09 to=  1.10001e-07
power_avg_uw        =  5.36470e+00


Total analysis time (seconds) = 0.497435

Total elapsed time (seconds) = 0.573 

Total DRAM available = 16384.000 MB.
DRAM currently available =  173.375 MB.
Maximum ngspice program size =   14.375 MB.
Current ngspice program size =   14.375 MB.

