
Note: No compatibility mode selected!


Circuit: INV seed characterization sample 4000034

Doing analysis at TEMP = -1.179780 and TNOM = 27.000000

Using SPARSE 1.3 as Direct Linear Solver

Initial Transient Solution
--------------------------

Node                                   Voltage
----                                   -------
vdd                                    1.87832
in                                           0
out                                    1.87832
vin#branch                                   0
vdd#branch                        -2.20927e-12

 Reference value :  7.17957e-08
No. of Data Rows : 60044

  Measurements for Transient Analysis

tphl                =  3.28506e-10 targ=  2.48569e-09 trig=  2.15718e-09
tplh                =  3.23709e-10 targ=  2.27953e-08 trig=  2.24715e-08
i_vdd_avg           =  -2.81351e-06 from=  5.00000e-09 to=  1.10002e-07
power_avg_uw        =  5.28467e+00


Total analysis time (seconds) = 0.295489

Total elapsed time (seconds) = 0.367 

Total DRAM available = 16384.000 MB.
DRAM currently available =  396.812 MB.
Maximum ngspice program size =   12.562 MB.
Current ngspice program size =   12.094 MB.

