
Note: No compatibility mode selected!


Circuit: NAND2 seed characterization sample 4000022

Doing analysis at TEMP = 17.833400 and TNOM = 27.000000

Using SPARSE 1.3 as Direct Linear Solver

Initial Transient Solution
--------------------------

Node                                   Voltage
----                                   -------
vdd                                    1.87977
in                                           0
out                                    1.87977
nmid                                 0.0535243
vin#branch                                   0
vdd#branch                        -3.09618e-12

 Reference value :  4.21530e-08
 Reference value :  1.00150e-07
No. of Data Rows : 60041

  Measurements for Transient Analysis

tphl                =  1.72454e-10 targ=  2.32479e-09 trig=  2.15234e-09
tplh                =  8.02034e-11 targ=  2.25372e-08 trig=  2.24570e-08
i_vdd_avg           =  -3.33968e-06 from=  5.00000e-09 to=  1.10000e-07
power_avg_uw        =  6.27784e+00


Total analysis time (seconds) = 0.495561

Total elapsed time (seconds) = 0.574 

Total DRAM available = 16384.000 MB.
DRAM currently available =  346.328 MB.
Maximum ngspice program size =   12.562 MB.
Current ngspice program size =   11.969 MB.

