
Note: No compatibility mode selected!


Circuit: NAND2 seed characterization sample 4000032

Doing analysis at TEMP = 61.782000 and TNOM = 27.000000

Using SPARSE 1.3 as Direct Linear Solver

Initial Transient Solution
--------------------------

Node                                   Voltage
----                                   -------
vdd                                    1.73356
in                                           0
out                                    1.73356
nmid                                 0.0546931
vin#branch                                   0
vdd#branch                        -1.10139e-11

 Reference value :  4.79910e-08
 Reference value :  1.09829e-07
No. of Data Rows : 60044

  Measurements for Transient Analysis

tphl                =  4.02668e-10 targ=  2.41664e-09 trig=  2.01398e-09
tplh                =  1.12196e-10 targ=  2.21541e-08 trig=  2.20419e-08
i_vdd_avg           =  -4.39411e-06 from=  5.00000e-09 to=  1.10001e-07
power_avg_uw        =  7.61746e+00


Total analysis time (seconds) = 0.467141

Total elapsed time (seconds) = 0.535 

Total DRAM available = 16384.000 MB.
DRAM currently available =  350.625 MB.
Maximum ngspice program size =   12.562 MB.
Current ngspice program size =   12.188 MB.

