
Note: No compatibility mode selected!


Circuit: INV seed characterization sample 4000028

Doing analysis at TEMP = 87.844400 and TNOM = 27.000000

Using SPARSE 1.3 as Direct Linear Solver

Initial Transient Solution
--------------------------

Node                                   Voltage
----                                   -------
vdd                                    1.77151
in                                           0
out                                    1.77151
vin#branch                                   0
vdd#branch                        -4.58828e-10

 Reference value :  7.15631e-08
No. of Data Rows : 60044

  Measurements for Transient Analysis

tphl                =  8.01875e-11 targ=  2.10822e-09 trig=  2.02803e-09
tplh                =  1.13068e-10 targ=  2.21972e-08 trig=  2.20841e-08
i_vdd_avg           =  -2.43086e-06 from=  5.00000e-09 to=  1.10001e-07
power_avg_uw        =  4.30629e+00


Total analysis time (seconds) = 0.299997

Total elapsed time (seconds) = 0.372 

Total DRAM available = 16384.000 MB.
DRAM currently available =  342.734 MB.
Maximum ngspice program size =   12.562 MB.
Current ngspice program size =   11.906 MB.

