
Note: No compatibility mode selected!


Circuit: INV seed characterization sample 4000027

Doing analysis at TEMP = 16.191900 and TNOM = 27.000000

Using SPARSE 1.3 as Direct Linear Solver

Initial Transient Solution
--------------------------

Node                                   Voltage
----                                   -------
vdd                                    1.86332
in                                           0
out                                    1.86332
vin#branch                                   0
vdd#branch                        -1.05651e-11

 Reference value :  6.82925e-08
No. of Data Rows : 60044

  Measurements for Transient Analysis

tphl                =  1.34927e-10 targ=  2.34380e-09 trig=  2.20887e-09
tplh                =  1.67768e-10 targ=  2.27944e-08 trig=  2.26266e-08
i_vdd_avg           =  -3.81490e-06 from=  5.00000e-09 to=  1.10000e-07
power_avg_uw        =  7.10838e+00


Total analysis time (seconds) = 0.29578

Total elapsed time (seconds) = 0.379 

Total DRAM available = 16384.000 MB.
DRAM currently available =  348.047 MB.
Maximum ngspice program size =   12.969 MB.
Current ngspice program size =   12.969 MB.

