
Note: No compatibility mode selected!


Circuit: NAND2 seed characterization sample 4000047

Doing analysis at TEMP = 45.780400 and TNOM = 27.000000

Using SPARSE 1.3 as Direct Linear Solver

Initial Transient Solution
--------------------------

Node                                   Voltage
----                                   -------
vdd                                    1.89742
in                                           0
out                                    1.89742
nmid                                 0.0573066
vin#branch                                   0
vdd#branch                        -1.28467e-11

 Reference value :  3.96841e-08
 Reference value :  9.27296e-08
No. of Data Rows : 60041

  Measurements for Transient Analysis

tphl                =  1.55245e-10 targ=  2.21553e-09 trig=  2.06029e-09
tplh                =  6.37002e-11 targ=  2.22446e-08 trig=  2.21809e-08
i_vdd_avg           =  -4.76321e-06 from=  5.00000e-09 to=  1.10000e-07
power_avg_uw        =  9.03781e+00


Total analysis time (seconds) = 0.545065

Total elapsed time (seconds) = 0.622 

Total DRAM available = 16384.000 MB.
DRAM currently available =  354.375 MB.
Maximum ngspice program size =   12.562 MB.
Current ngspice program size =   11.906 MB.

