
Note: No compatibility mode selected!


Circuit: NOR2 seed characterization sample 4000006

Doing analysis at TEMP = 79.669900 and TNOM = 27.000000

Using SPARSE 1.3 as Direct Linear Solver

Initial Transient Solution
--------------------------

Node                                   Voltage
----                                   -------
vdd                                    1.69483
in                                           0
out                                    1.69483
pmid                                   1.69483
vin#branch                                   0
vdd#branch                        -7.45227e-10

 Reference value :  6.68260e-08
No. of Data Rows : 60044

  Measurements for Transient Analysis

tphl                =  4.77934e-11 targ=  2.07803e-09 trig=  2.03024e-09
tplh                =  1.67935e-10 targ=  2.22587e-08 trig=  2.20907e-08
i_vdd_avg           =  -2.90769e-06 from=  5.00000e-09 to=  1.10002e-07
power_avg_uw        =  4.92804e+00


Total analysis time (seconds) = 0.378479

Total elapsed time (seconds) = 0.428 

Total DRAM available = 16384.000 MB.
DRAM currently available =  237.812 MB.
Maximum ngspice program size =   12.688 MB.
Current ngspice program size =   12.672 MB.

