
Note: No compatibility mode selected!


Circuit: XOR2 seed characterization sample 4423032

Doing analysis at TEMP = 78.156600 and TNOM = 27.000000

Using SPARSE 1.3 as Direct Linear Solver

Initial Transient Solution
--------------------------

Node                                   Voltage
----                                   -------
vdd                                    1.85576
in                                           0
b                                      1.85576
abar                                   1.85576
bbar                               3.90159e-09
out                                    1.85576
vb#branch                                    0
vin#branch                         2.45131e-11
vdd#branch                        -5.12716e-11

 Reference value :  2.24701e-08
 Reference value :  5.21161e-08
 Reference value :  8.27761e-08
 Reference value :  1.16375e-07
No. of Data Rows : 60047

  Measurements for Transient Analysis

tphl                =  4.88816e-10 targ=  2.65935e-09 trig=  2.17053e-09
tplh                =  5.51501e-10 targ=  2.30631e-08 trig=  2.25116e-08
i_vdd_avg           =  -6.80815e-06 from=  5.00000e-09 to=  1.10001e-07
power_avg_uw        =  1.26343e+01


Total analysis time (seconds) = 0.940252

Total elapsed time (seconds) = 1.019 

Total DRAM available = 16384.000 MB.
DRAM currently available =  223.219 MB.
Maximum ngspice program size =   12.578 MB.
Current ngspice program size =   11.656 MB.

