
Note: No compatibility mode selected!


Circuit: INV seed characterization sample 4423002

Doing analysis at TEMP = 87.276600 and TNOM = 27.000000

Using SPARSE 1.3 as Direct Linear Solver

Initial Transient Solution
--------------------------

Node                                   Voltage
----                                   -------
vdd                                    1.66382
in                                           0
out                                    1.66382
vin#branch                                   0
vdd#branch                        -9.53052e-12

 Reference value :  6.93926e-08
No. of Data Rows : 60041

  Measurements for Transient Analysis

tphl                =  8.10011e-10 targ=  2.88041e-09 trig=  2.07040e-09
tplh                =  9.88178e-10 targ=  2.31994e-08 trig=  2.22112e-08
i_vdd_avg           =  -4.83224e-06 from=  5.00000e-09 to=  1.10001e-07
power_avg_uw        =  8.03997e+00


Total analysis time (seconds) = 0.30383

Total elapsed time (seconds) = 0.378 

Total DRAM available = 16384.000 MB.
DRAM currently available =  226.375 MB.
Maximum ngspice program size =   12.672 MB.
Current ngspice program size =   12.672 MB.

