
Note: No compatibility mode selected!


Circuit: INV seed characterization sample 4423017

Doing analysis at TEMP = 6.566610 and TNOM = 27.000000

Using SPARSE 1.3 as Direct Linear Solver

Initial Transient Solution
--------------------------

Node                                   Voltage
----                                   -------
vdd                                    1.90412
in                                           0
out                                    1.90412
vin#branch                                   0
vdd#branch                        -1.95282e-12

 Reference value :  7.27439e-08
No. of Data Rows : 60047

  Measurements for Transient Analysis

tphl                =  2.17339e-10 targ=  2.26006e-09 trig=  2.04272e-09
tplh                =  2.22811e-10 targ=  2.23510e-08 trig=  2.21282e-08
i_vdd_avg           =  -2.71202e-06 from=  5.00000e-09 to=  1.10002e-07
power_avg_uw        =  5.16402e+00


Total analysis time (seconds) = 0.297408

Total elapsed time (seconds) = 0.368 

Total DRAM available = 16384.000 MB.
DRAM currently available =  233.969 MB.
Maximum ngspice program size =   12.562 MB.
Current ngspice program size =   11.625 MB.

