
Note: No compatibility mode selected!


Circuit: INV seed characterization sample 4423038

Doing analysis at TEMP = -4.324520 and TNOM = 27.000000

Using SPARSE 1.3 as Direct Linear Solver

Initial Transient Solution
--------------------------

Node                                   Voltage
----                                   -------
vdd                                    1.74116
in                                           0
out                                    1.74116
vin#branch                                   0
vdd#branch                        -1.76169e-12

 Reference value :  6.27218e-08
No. of Data Rows : 60044

  Measurements for Transient Analysis

tphl                =  1.59193e-10 targ=  2.28840e-09 trig=  2.12921e-09
tplh                =  2.11319e-10 targ=  2.25989e-08 trig=  2.23876e-08
i_vdd_avg           =  -9.39893e-07 from=  5.00000e-09 to=  1.10002e-07
power_avg_uw        =  1.63650e+00


Total analysis time (seconds) = 0.33543

Total elapsed time (seconds) = 0.412 

Total DRAM available = 16384.000 MB.
DRAM currently available =  220.500 MB.
Maximum ngspice program size =   12.562 MB.
Current ngspice program size =   11.594 MB.

