
Note: No compatibility mode selected!


Circuit: XOR2 seed characterization sample 4423007

Doing analysis at TEMP = 31.339700 and TNOM = 27.000000

Using SPARSE 1.3 as Direct Linear Solver

Initial Transient Solution
--------------------------

Node                                   Voltage
----                                   -------
vdd                                    1.64274
in                                           0
b                                      1.64274
abar                                   1.64274
bbar                               2.96691e-09
out                                    1.64274
vb#branch                                    0
vin#branch                         2.13886e-12
vdd#branch                        -1.07654e-11

 Reference value :  2.31900e-08
 Reference value :  5.43295e-08
 Reference value :  8.57255e-08
 Reference value :  1.19688e-07
No. of Data Rows : 60044

  Measurements for Transient Analysis

tphl                =  6.85625e-10 targ=  2.92486e-09 trig=  2.23924e-09
tplh                =  1.11564e-09 targ=  2.38334e-08 trig=  2.27177e-08
i_vdd_avg           =  -4.84463e-06 from=  5.00000e-09 to=  1.10002e-07
power_avg_uw        =  7.95847e+00


Total analysis time (seconds) = 0.915405

Total elapsed time (seconds) = 0.994 

Total DRAM available = 16384.000 MB.
DRAM currently available =  230.031 MB.
Maximum ngspice program size =   12.719 MB.
Current ngspice program size =   11.844 MB.

