
Note: No compatibility mode selected!


Circuit: INV seed characterization sample 4423023

Doing analysis at TEMP = 46.499600 and TNOM = 27.000000

Using SPARSE 1.3 as Direct Linear Solver

Initial Transient Solution
--------------------------

Node                                   Voltage
----                                   -------
vdd                                    1.76285
in                                           0
out                                    1.76285
vin#branch                                   0
vdd#branch                        -2.76693e-12

 Reference value :  7.53722e-08
No. of Data Rows : 60041

  Measurements for Transient Analysis

tphl                =  2.48622e-10 targ=  2.46993e-09 trig=  2.22131e-09
tplh                =  3.35344e-10 targ=  2.29993e-08 trig=  2.26639e-08
i_vdd_avg           =  -1.78139e-06 from=  5.00000e-09 to=  1.10000e-07
power_avg_uw        =  3.14032e+00


Total analysis time (seconds) = 0.283129

Total elapsed time (seconds) = 0.352 

Total DRAM available = 16384.000 MB.
DRAM currently available =  228.234 MB.
Maximum ngspice program size =   12.562 MB.
Current ngspice program size =   11.688 MB.

