
Note: No compatibility mode selected!


Circuit: XOR2 seed characterization sample 4423004

Doing analysis at TEMP = 63.118700 and TNOM = 27.000000

Using SPARSE 1.3 as Direct Linear Solver

Initial Transient Solution
--------------------------

Node                                   Voltage
----                                   -------
vdd                                    1.80593
in                                           0
b                                      1.80593
abar                                   1.80593
bbar                               5.11719e-09
out                                    1.80593
vb#branch                                    0
vin#branch                          5.2437e-12
vdd#branch                        -1.70368e-11

 Reference value :  2.50065e-08
 Reference value :  5.88938e-08
 Reference value :  9.35218e-08
No. of Data Rows : 60041

  Measurements for Transient Analysis

tphl                =  5.41944e-10 targ=  2.73133e-09 trig=  2.18938e-09
tplh                =  7.16848e-10 targ=  2.32850e-08 trig=  2.25681e-08
i_vdd_avg           =  -3.36303e-06 from=  5.00000e-09 to=  1.10001e-07
power_avg_uw        =  6.07340e+00


Total analysis time (seconds) = 0.836878

Total elapsed time (seconds) = 0.913 

Total DRAM available = 16384.000 MB.
DRAM currently available =  226.375 MB.
Maximum ngspice program size =   12.594 MB.
Current ngspice program size =   11.859 MB.

