
Note: No compatibility mode selected!


Circuit: XOR2 seed characterization sample 4423045

Doing analysis at TEMP = 58.421100 and TNOM = 27.000000

Using SPARSE 1.3 as Direct Linear Solver

Initial Transient Solution
--------------------------

Node                                   Voltage
----                                   -------
vdd                                    1.67869
in                                           0
b                                      1.67869
abar                                   1.67869
bbar                               1.34271e-09
out                                    1.67869
vb#branch                                    0
vin#branch                         1.34166e-11
vdd#branch                        -3.10344e-11

 Reference value :  2.67336e-08
 Reference value :  6.22413e-08
 Reference value :  9.69053e-08
No. of Data Rows : 60044

  Measurements for Transient Analysis

tphl                =  2.20950e-10 targ=  2.29411e-09 trig=  2.07316e-09
tplh                =  3.36931e-10 targ=  2.25564e-08 trig=  2.22195e-08
i_vdd_avg           =  -4.44079e-06 from=  5.00000e-09 to=  1.10002e-07
power_avg_uw        =  7.45471e+00


Total analysis time (seconds) = 0.819684

Total elapsed time (seconds) = 0.890 

Total DRAM available = 16384.000 MB.
DRAM currently available =  217.062 MB.
Maximum ngspice program size =   12.578 MB.
Current ngspice program size =   11.750 MB.

