
Note: No compatibility mode selected!


Circuit: NOR2 seed characterization sample 4423018

Doing analysis at TEMP = 16.629900 and TNOM = 27.000000

Using SPARSE 1.3 as Direct Linear Solver

Initial Transient Solution
--------------------------

Node                                   Voltage
----                                   -------
vdd                                    1.83689
in                                           0
out                                    1.83689
pmid                                   1.83689
vin#branch                                   0
vdd#branch                        -3.83572e-12

 Reference value :  4.54089e-08
 Reference value :  1.04747e-07
No. of Data Rows : 60044

  Measurements for Transient Analysis

tphl                =  1.22217e-10 targ=  2.13616e-09 trig=  2.01394e-09
tplh                =  5.54818e-10 targ=  2.25966e-08 trig=  2.20418e-08
i_vdd_avg           =  -2.00335e-06 from=  5.00000e-09 to=  1.10001e-07
power_avg_uw        =  3.67992e+00


Total analysis time (seconds) = 0.485456

Total elapsed time (seconds) = 0.557 

Total DRAM available = 16384.000 MB.
DRAM currently available =  233.969 MB.
Maximum ngspice program size =   12.562 MB.
Current ngspice program size =   11.766 MB.

