
Note: No compatibility mode selected!


Circuit: NAND2 seed characterization sample 4423046

Doing analysis at TEMP = 45.401700 and TNOM = 27.000000

Using SPARSE 1.3 as Direct Linear Solver

Initial Transient Solution
--------------------------

Node                                   Voltage
----                                   -------
vdd                                    1.72955
in                                           0
out                                    1.72955
nmid                                 0.0433213
vin#branch                                   0
vdd#branch                        -2.13506e-12

 Reference value :  4.81195e-08
 Reference value :  1.10304e-07
No. of Data Rows : 60041

  Measurements for Transient Analysis

tphl                =  4.62541e-10 targ=  2.57581e-09 trig=  2.11327e-09
tplh                =  2.32429e-10 targ=  2.25722e-08 trig=  2.23398e-08
i_vdd_avg           =  -4.45657e-06 from=  5.00000e-09 to=  1.10000e-07
power_avg_uw        =  7.70786e+00


Total analysis time (seconds) = 0.463233

Total elapsed time (seconds) = 0.533 

Total DRAM available = 16384.000 MB.
DRAM currently available =  187.500 MB.
Maximum ngspice program size =   12.609 MB.
Current ngspice program size =   11.641 MB.

