
Note: No compatibility mode selected!


Circuit: XOR2 seed characterization sample 4423029

Doing analysis at TEMP = 36.831500 and TNOM = 27.000000

Using SPARSE 1.3 as Direct Linear Solver

Initial Transient Solution
--------------------------

Node                                   Voltage
----                                   -------
vdd                                    1.94089
in                                           0
b                                      1.94089
abar                                   1.94089
bbar                               2.64855e-09
out                                    1.94089
vb#branch                                    0
vin#branch                         3.09794e-12
vdd#branch                        -1.37182e-11

 Reference value :  2.26545e-08
 Reference value :  5.25685e-08
 Reference value :  8.32545e-08
 Reference value :  1.17118e-07
No. of Data Rows : 60044

  Measurements for Transient Analysis

tphl                =  2.32890e-10 targ=  2.47965e-09 trig=  2.24676e-09
tplh                =  2.37908e-10 targ=  2.29782e-08 trig=  2.27403e-08
i_vdd_avg           =  -1.81318e-06 from=  5.00000e-09 to=  1.10000e-07
power_avg_uw        =  3.51918e+00


Total analysis time (seconds) = 0.933675

Total elapsed time (seconds) = 1.012 

Total DRAM available = 16384.000 MB.
DRAM currently available =  209.031 MB.
Maximum ngspice program size =   12.578 MB.
Current ngspice program size =   11.656 MB.

