
Note: No compatibility mode selected!


Circuit: NOR2 seed characterization sample 4423003

Doing analysis at TEMP = 98.721300 and TNOM = 27.000000

Using SPARSE 1.3 as Direct Linear Solver

Initial Transient Solution
--------------------------

Node                                   Voltage
----                                   -------
vdd                                    1.63343
in                                           0
out                                    1.63343
pmid                                   1.63343
vin#branch                                   0
vdd#branch                        -2.92391e-11

 Reference value :  4.30482e-08
 Reference value :  1.00736e-07
No. of Data Rows : 60047

  Measurements for Transient Analysis

tphl                =  1.56988e-10 targ=  2.24360e-09 trig=  2.08661e-09
tplh                =  6.89103e-10 targ=  2.29489e-08 trig=  2.22598e-08
i_vdd_avg           =  -1.15838e-06 from=  5.00000e-09 to=  1.10001e-07
power_avg_uw        =  1.89213e+00


Total analysis time (seconds) = 0.500204

Total elapsed time (seconds) = 0.575 

Total DRAM available = 16384.000 MB.
DRAM currently available =  226.375 MB.
Maximum ngspice program size =   12.562 MB.
Current ngspice program size =   11.875 MB.

