
Note: No compatibility mode selected!


Circuit: XOR2 seed characterization sample 4423016

Doing analysis at TEMP = 26.562300 and TNOM = 27.000000

Using SPARSE 1.3 as Direct Linear Solver

Initial Transient Solution
--------------------------

Node                                   Voltage
----                                   -------
vdd                                    1.76626
in                                           0
b                                      1.76626
abar                                   1.76626
bbar                               2.28514e-09
out                                    1.76626
vb#branch                                    0
vin#branch                         2.27214e-12
vdd#branch                        -1.15287e-11

 Reference value :  2.20456e-08
 Reference value :  5.23076e-08
 Reference value :  8.38216e-08
No. of Data Rows : 60041

  Measurements for Transient Analysis

tphl                =  4.90696e-10 targ=  2.71400e-09 trig=  2.22330e-09
tplh                =  5.97241e-10 targ=  2.32672e-08 trig=  2.26699e-08
i_vdd_avg           =  -5.15177e-06 from=  5.00000e-09 to=  1.10000e-07
power_avg_uw        =  9.09936e+00


Total analysis time (seconds) = 0.894332

Total elapsed time (seconds) = 0.975 

Total DRAM available = 16384.000 MB.
DRAM currently available =  217.734 MB.
Maximum ngspice program size =   12.578 MB.
Current ngspice program size =   11.719 MB.

