
Note: No compatibility mode selected!


Circuit: XOR2 seed characterization sample 4423040

Doing analysis at TEMP = 18.931900 and TNOM = 27.000000

Using SPARSE 1.3 as Direct Linear Solver

Initial Transient Solution
--------------------------

Node                                   Voltage
----                                   -------
vdd                                    1.89216
in                                           0
b                                      1.89216
abar                                   1.89216
bbar                               2.08793e-09
out                                    1.89216
vb#branch                                    0
vin#branch                         2.21711e-12
vdd#branch                        -1.19666e-11

 Reference value :  2.23259e-08
 Reference value :  5.33299e-08
 Reference value :  8.84259e-08
No. of Data Rows : 60041

  Measurements for Transient Analysis

tphl                =  2.67694e-10 targ=  2.39014e-09 trig=  2.12244e-09
tplh                =  3.38958e-10 targ=  2.27063e-08 trig=  2.23673e-08
i_vdd_avg           =  -3.50262e-06 from=  5.00000e-09 to=  1.10001e-07
power_avg_uw        =  6.62751e+00


Total analysis time (seconds) = 0.865703

Total elapsed time (seconds) = 0.944 

Total DRAM available = 16384.000 MB.
DRAM currently available =  218.438 MB.
Maximum ngspice program size =   12.578 MB.
Current ngspice program size =   11.828 MB.

