
Note: No compatibility mode selected!


Circuit: XOR2 seed characterization sample 4423048

Doing analysis at TEMP = -2.801200 and TNOM = 27.000000

Using SPARSE 1.3 as Direct Linear Solver

Initial Transient Solution
--------------------------

Node                                   Voltage
----                                   -------
vdd                                     1.7277
in                                           0
b                                       1.7277
abar                                    1.7277
bbar                                8.5312e-10
out                                     1.7277
vb#branch                                    0
vin#branch                         1.83237e-12
vdd#branch                        -1.05946e-11

 Reference value :  2.75490e-08
 Reference value :  6.30750e-08
 Reference value :  9.80280e-08
No. of Data Rows : 60041

  Measurements for Transient Analysis

tphl                =  2.98705e-10 targ=  2.45820e-09 trig=  2.15949e-09
tplh                =  3.39425e-10 targ=  2.28179e-08 trig=  2.24785e-08
i_vdd_avg           =  -6.74403e-06 from=  5.00000e-09 to=  1.10001e-07
power_avg_uw        =  1.16517e+01


Total analysis time (seconds) = 0.814542

Total elapsed time (seconds) = 0.884 

Total DRAM available = 16384.000 MB.
DRAM currently available =  205.953 MB.
Maximum ngspice program size =   12.562 MB.
Current ngspice program size =   11.625 MB.

