
Note: No compatibility mode selected!


Circuit: INV seed characterization sample 4423011

Doing analysis at TEMP = 61.829600 and TNOM = 27.000000

Using SPARSE 1.3 as Direct Linear Solver

Initial Transient Solution
--------------------------

Node                                   Voltage
----                                   -------
vdd                                    1.85776
in                                           0
out                                    1.85776
vin#branch                                   0
vdd#branch                        -3.61144e-12

 Reference value :  6.06587e-08
No. of Data Rows : 60044

  Measurements for Transient Analysis

tphl                =  1.12292e-10 targ=  2.34216e-09 trig=  2.22987e-09
tplh                =  1.57942e-10 targ=  2.28475e-08 trig=  2.26896e-08
i_vdd_avg           =  -2.49820e-07 from=  5.00000e-09 to=  1.10000e-07
power_avg_uw        =  4.64105e-01


Total analysis time (seconds) = 0.344981

Total elapsed time (seconds) = 0.424 

Total DRAM available = 16384.000 MB.
DRAM currently available =  216.219 MB.
Maximum ngspice program size =   12.562 MB.
Current ngspice program size =   12.156 MB.

