
Note: No compatibility mode selected!


Circuit: XOR2 seed characterization sample 4423005

Doing analysis at TEMP = -5.496250 and TNOM = 27.000000

Using SPARSE 1.3 as Direct Linear Solver

Initial Transient Solution
--------------------------

Node                                   Voltage
----                                   -------
vdd                                    1.78109
in                                           0
b                                      1.78109
abar                                   1.78109
bbar                               5.01234e-09
out                                    1.78109
vb#branch                                    0
vin#branch                         1.80088e-12
vdd#branch                        -1.07652e-11

 Reference value :  1.96814e-08
 Reference value :  5.06374e-08
 Reference value :  8.20450e-08
 Reference value :  1.15928e-07
No. of Data Rows : 60044

  Measurements for Transient Analysis

tphl                =  4.47175e-10 targ=  2.54436e-09 trig=  2.09718e-09
tplh                =  5.86424e-10 targ=  2.28780e-08 trig=  2.22916e-08
i_vdd_avg           =  -2.34638e-06 from=  5.00000e-09 to=  1.10002e-07
power_avg_uw        =  4.17911e+00


Total analysis time (seconds) = 0.922675

Total elapsed time (seconds) = 1.024 

Total DRAM available = 16384.000 MB.
DRAM currently available =  217.172 MB.
Maximum ngspice program size =   13.078 MB.
Current ngspice program size =   12.891 MB.

