
Note: No compatibility mode selected!


Circuit: NOR2 seed characterization sample 4423047

Doing analysis at TEMP = 33.439000 and TNOM = 27.000000

Using SPARSE 1.3 as Direct Linear Solver

Initial Transient Solution
--------------------------

Node                                   Voltage
----                                   -------
vdd                                    1.85555
in                                           0
out                                    1.85555
pmid                                   1.85555
vin#branch                                   0
vdd#branch                        -6.27437e-12

 Reference value :  4.76816e-08
 Reference value :  1.08984e-07
No. of Data Rows : 60041

  Measurements for Transient Analysis

tphl                =  1.43751e-10 targ=  2.31904e-09 trig=  2.17529e-09
tplh                =  3.77468e-10 targ=  2.29033e-08 trig=  2.25259e-08
i_vdd_avg           =  -4.61528e-06 from=  5.00000e-09 to=  1.10000e-07
power_avg_uw        =  8.56388e+00


Total analysis time (seconds) = 0.470294

Total elapsed time (seconds) = 0.539 

Total DRAM available = 16384.000 MB.
DRAM currently available =  196.516 MB.
Maximum ngspice program size =   12.562 MB.
Current ngspice program size =   11.625 MB.

