
Note: No compatibility mode selected!


Circuit: XOR2 seed characterization sample 4201044

Doing analysis at TEMP = 20.870400 and TNOM = 27.000000

Using SPARSE 1.3 as Direct Linear Solver

Initial Transient Solution
--------------------------

Node                                   Voltage
----                                   -------
vdd                                    1.74469
in                                           0
b                                      1.74469
abar                                   1.74469
bbar                               3.99835e-09
out                                    1.74469
vb#branch                                    0
vin#branch                         4.18696e-12
vdd#branch                          -1.499e-11

 Reference value :  2.67576e-08
 Reference value :  6.18603e-08
 Reference value :  9.88963e-08
No. of Data Rows : 60047

  Measurements for Transient Analysis

tphl                =  4.82734e-10 targ=  2.61237e-09 trig=  2.12964e-09
tplh                =  5.45119e-10 targ=  2.29340e-08 trig=  2.23889e-08
i_vdd_avg           =  -3.86120e-06 from=  5.00000e-09 to=  1.10002e-07
power_avg_uw        =  6.73660e+00


Total analysis time (seconds) = 0.802881

Total elapsed time (seconds) = 0.873 

Total DRAM available = 16384.000 MB.
DRAM currently available =  139.109 MB.
Maximum ngspice program size =   12.578 MB.
Current ngspice program size =   11.656 MB.

