
Note: No compatibility mode selected!


Circuit: XOR2 seed characterization sample 4201016

Doing analysis at TEMP = 58.344300 and TNOM = 27.000000

Using SPARSE 1.3 as Direct Linear Solver

Initial Transient Solution
--------------------------

Node                                   Voltage
----                                   -------
vdd                                    1.68626
in                                           0
b                                      1.68626
abar                                   1.68626
bbar                               5.49848e-09
out                                    1.68626
vb#branch                                    0
vin#branch                         1.37293e-10
vdd#branch                         -2.5155e-10

 Reference value :  2.61781e-08
 Reference value :  6.13225e-08
 Reference value :  9.85585e-08
No. of Data Rows : 60044

  Measurements for Transient Analysis

tphl                =  9.97215e-11 targ=  2.14449e-09 trig=  2.04477e-09
tplh                =  1.25255e-10 targ=  2.22596e-08 trig=  2.21343e-08
i_vdd_avg           =  -2.11091e-06 from=  5.00000e-09 to=  1.10000e-07
power_avg_uw        =  3.55954e+00


Total analysis time (seconds) = 0.800654

Total elapsed time (seconds) = 0.873 

Total DRAM available = 16384.000 MB.
DRAM currently available =  143.469 MB.
Maximum ngspice program size =   12.578 MB.
Current ngspice program size =   11.891 MB.

