
Note: No compatibility mode selected!


Circuit: INV seed characterization sample 4201029

Doing analysis at TEMP = 56.545400 and TNOM = 27.000000

Using SPARSE 1.3 as Direct Linear Solver

Initial Transient Solution
--------------------------

Node                                   Voltage
----                                   -------
vdd                                    1.92177
in                                           0
out                                    1.92177
vin#branch                                   0
vdd#branch                        -6.05807e-11

 Reference value :  7.26337e-08
No. of Data Rows : 60044

  Measurements for Transient Analysis

tphl                =  1.82926e-10 targ=  2.28909e-09 trig=  2.10617e-09
tplh                =  1.87253e-10 targ=  2.25058e-08 trig=  2.23185e-08
i_vdd_avg           =  -4.13311e-06 from=  5.00000e-09 to=  1.10002e-07
power_avg_uw        =  7.94288e+00


Total analysis time (seconds) = 0.300288

Total elapsed time (seconds) = 0.369 

Total DRAM available = 16384.000 MB.
DRAM currently available =  132.375 MB.
Maximum ngspice program size =   12.562 MB.
Current ngspice program size =   11.688 MB.

