
Note: No compatibility mode selected!


Circuit: NOR2 seed characterization sample 4201043

Doing analysis at TEMP = 2.629750 and TNOM = 27.000000

Using SPARSE 1.3 as Direct Linear Solver

Initial Transient Solution
--------------------------

Node                                   Voltage
----                                   -------
vdd                                    1.62504
in                                           0
out                                    1.62504
pmid                                   1.62504
vin#branch                                   0
vdd#branch                          -3.929e-12

 Reference value :  4.07661e-08
 Reference value :  1.01228e-07
No. of Data Rows : 60041

  Measurements for Transient Analysis

tphl                =  2.72947e-10 targ=  2.39822e-09 trig=  2.12528e-09
tplh                =  9.07484e-10 targ=  2.32833e-08 trig=  2.23758e-08
i_vdd_avg           =  -3.04632e-06 from=  5.00000e-09 to=  1.10000e-07
power_avg_uw        =  4.95040e+00


Total analysis time (seconds) = 0.480375

Total elapsed time (seconds) = 0.571 

Total DRAM available = 16384.000 MB.
DRAM currently available =  139.109 MB.
Maximum ngspice program size =   12.719 MB.
Current ngspice program size =   12.078 MB.

