
Note: No compatibility mode selected!


Circuit: NAND2 seed characterization sample 4201038

Doing analysis at TEMP = 4.581110 and TNOM = 27.000000

Using SPARSE 1.3 as Direct Linear Solver

Initial Transient Solution
--------------------------

Node                                   Voltage
----                                   -------
vdd                                    1.67108
in                                           0
out                                    1.67108
nmid                                 0.0454507
vin#branch                                   0
vdd#branch                        -2.15603e-12

 Reference value :  4.74745e-08
 Reference value :  1.08862e-07
No. of Data Rows : 60044

  Measurements for Transient Analysis

tphl                =  2.48530e-10 targ=  2.45330e-09 trig=  2.20477e-09
tplh                =  1.51845e-10 targ=  2.27662e-08 trig=  2.26143e-08
i_vdd_avg           =  -4.18535e-06 from=  5.00000e-09 to=  1.10000e-07
power_avg_uw        =  6.99405e+00


Total analysis time (seconds) = 0.470116

Total elapsed time (seconds) = 0.539 

Total DRAM available = 16384.000 MB.
DRAM currently available =  129.469 MB.
Maximum ngspice program size =   12.562 MB.
Current ngspice program size =   11.875 MB.

