
Note: No compatibility mode selected!


Circuit: NAND2 seed characterization sample 4201018

Doing analysis at TEMP = 93.536600 and TNOM = 27.000000

Using SPARSE 1.3 as Direct Linear Solver

Initial Transient Solution
--------------------------

Node                                   Voltage
----                                   -------
vdd                                    1.88646
in                                           0
out                                    1.88646
nmid                                 0.0596336
vin#branch                                   0
vdd#branch                        -1.36639e-10

 Reference value :  4.72462e-08
 Reference value :  1.09145e-07
No. of Data Rows : 60047

  Measurements for Transient Analysis

tphl                =  2.15404e-10 targ=  2.33803e-09 trig=  2.12262e-09
tplh                =  1.01503e-10 targ=  2.24694e-08 trig=  2.23679e-08
i_vdd_avg           =  -4.39014e-06 from=  5.00000e-09 to=  1.10001e-07
power_avg_uw        =  8.28183e+00


Total analysis time (seconds) = 0.467348

Total elapsed time (seconds) = 0.537 

Total DRAM available = 16384.000 MB.
DRAM currently available =  153.344 MB.
Maximum ngspice program size =   12.562 MB.
Current ngspice program size =   11.594 MB.

