
Note: No compatibility mode selected!


Circuit: INV seed characterization sample 4201005

Doing analysis at TEMP = -13.325500 and TNOM = 27.000000

Using SPARSE 1.3 as Direct Linear Solver

Initial Transient Solution
--------------------------

Node                                   Voltage
----                                   -------
vdd                                    1.97093
in                                           0
out                                    1.97093
vin#branch                                   0
vdd#branch                        -2.49201e-12

 Reference value :  7.60913e-08
No. of Data Rows : 60047

  Measurements for Transient Analysis

tphl                =  1.43952e-10 targ=  2.37952e-09 trig=  2.23557e-09
tplh                =  1.63317e-10 targ=  2.28700e-08 trig=  2.27067e-08
i_vdd_avg           =  -3.24011e-06 from=  5.00000e-09 to=  1.10001e-07
power_avg_uw        =  6.38603e+00


Total analysis time (seconds) = 0.285223

Total elapsed time (seconds) = 0.353 

Total DRAM available = 16384.000 MB.
DRAM currently available =  128.484 MB.
Maximum ngspice program size =   12.562 MB.
Current ngspice program size =   11.875 MB.

