
Note: No compatibility mode selected!


Circuit: NOR2 seed characterization sample 4201011

Doing analysis at TEMP = 40.589200 and TNOM = 27.000000

Using SPARSE 1.3 as Direct Linear Solver

Initial Transient Solution
--------------------------

Node                                   Voltage
----                                   -------
vdd                                    1.92023
in                                           0
out                                    1.92023
pmid                                   1.92023
vin#branch                                   0
vdd#branch                        -7.39322e-11

 Reference value :  4.75903e-08
 Reference value :  1.08858e-07
No. of Data Rows : 60047

  Measurements for Transient Analysis

tphl                =  3.78509e-11 targ=  2.10049e-09 trig=  2.06264e-09
tplh                =  9.44881e-11 targ=  2.22824e-08 trig=  2.21879e-08
i_vdd_avg           =  -1.54824e-06 from=  5.00000e-09 to=  1.10002e-07
power_avg_uw        =  2.97298e+00


Total analysis time (seconds) = 0.470908

Total elapsed time (seconds) = 0.540 

Total DRAM available = 16384.000 MB.
DRAM currently available =  126.188 MB.
Maximum ngspice program size =   12.594 MB.
Current ngspice program size =   11.719 MB.

