
Note: No compatibility mode selected!


Circuit: NAND2 seed characterization sample 4201010

Doing analysis at TEMP = 25.430400 and TNOM = 27.000000

Using SPARSE 1.3 as Direct Linear Solver

Initial Transient Solution
--------------------------

Node                                   Voltage
----                                   -------
vdd                                    1.93705
in                                           0
out                                    1.93705
nmid                                 0.0552343
vin#branch                                   0
vdd#branch                        -3.20902e-12

 Reference value :  4.80501e-08
 Reference value :  1.10361e-07
No. of Data Rows : 60047

  Measurements for Transient Analysis

tphl                =  2.49021e-10 targ=  2.34158e-09 trig=  2.09256e-09
tplh                =  1.11557e-10 targ=  2.23892e-08 trig=  2.22777e-08
i_vdd_avg           =  -4.34627e-06 from=  5.00000e-09 to=  1.10001e-07
power_avg_uw        =  8.41894e+00


Total analysis time (seconds) = 0.462534

Total elapsed time (seconds) = 0.532 

Total DRAM available = 16384.000 MB.
DRAM currently available =  126.188 MB.
Maximum ngspice program size =   12.562 MB.
Current ngspice program size =   11.719 MB.

