
Note: No compatibility mode selected!


Circuit: NAND2 seed characterization sample 4201042

Doing analysis at TEMP = 87.673000 and TNOM = 27.000000

Using SPARSE 1.3 as Direct Linear Solver

Initial Transient Solution
--------------------------

Node                                   Voltage
----                                   -------
vdd                                    1.91266
in                                           0
out                                    1.91266
nmid                                  0.059954
vin#branch                                   0
vdd#branch                        -8.21762e-11

 Reference value :  4.69212e-08
 Reference value :  1.08113e-07
No. of Data Rows : 60044

  Measurements for Transient Analysis

tphl                =  3.71617e-10 targ=  2.61670e-09 trig=  2.24508e-09
tplh                =  1.59604e-10 targ=  2.28949e-08 trig=  2.27352e-08
i_vdd_avg           =  -6.29913e-06 from=  5.00000e-09 to=  1.10001e-07
power_avg_uw        =  1.20481e+01


Total analysis time (seconds) = 0.472097

Total elapsed time (seconds) = 0.541 

Total DRAM available = 16384.000 MB.
DRAM currently available =  139.109 MB.
Maximum ngspice program size =   12.562 MB.
Current ngspice program size =   11.625 MB.

