
Note: No compatibility mode selected!


Circuit: NOR2 seed characterization sample 4201015

Doing analysis at TEMP = 9.257880 and TNOM = 27.000000

Using SPARSE 1.3 as Direct Linear Solver

Initial Transient Solution
--------------------------

Node                                   Voltage
----                                   -------
vdd                                    1.85971
in                                           0
out                                    1.85971
pmid                                   1.85971
vin#branch                                   0
vdd#branch                        -1.11218e-11

 Reference value :  4.61087e-08
 Reference value :  1.06706e-07
No. of Data Rows : 60044

  Measurements for Transient Analysis

tphl                =  1.12091e-10 targ=  2.24493e-09 trig=  2.13284e-09
tplh                =  3.11808e-10 targ=  2.27103e-08 trig=  2.23985e-08
i_vdd_avg           =  -5.47011e-06 from=  5.00000e-09 to=  1.10000e-07
power_avg_uw        =  1.01728e+01


Total analysis time (seconds) = 0.478007

Total elapsed time (seconds) = 0.549 

Total DRAM available = 16384.000 MB.
DRAM currently available =  143.469 MB.
Maximum ngspice program size =   12.562 MB.
Current ngspice program size =   11.953 MB.

