
Note: No compatibility mode selected!


Circuit: INV seed characterization sample 4201045

Doing analysis at TEMP = 30.291900 and TNOM = 27.000000

Using SPARSE 1.3 as Direct Linear Solver

Initial Transient Solution
--------------------------

Node                                   Voltage
----                                   -------
vdd                                    1.74864
in                                           0
out                                    1.74864
vin#branch                                   0
vdd#branch                        -8.73486e-12

 Reference value :  7.31290e-08
No. of Data Rows : 60044

  Measurements for Transient Analysis

tphl                =  2.05713e-10 targ=  2.33870e-09 trig=  2.13299e-09
tplh                =  2.45116e-10 targ=  2.26441e-08 trig=  2.23990e-08
i_vdd_avg           =  -3.02362e-06 from=  5.00000e-09 to=  1.10001e-07
power_avg_uw        =  5.28722e+00


Total analysis time (seconds) = 0.294712

Total elapsed time (seconds) = 0.365 

Total DRAM available = 16384.000 MB.
DRAM currently available =  135.047 MB.
Maximum ngspice program size =   12.891 MB.
Current ngspice program size =   12.891 MB.

