
Note: No compatibility mode selected!


Circuit: NOR2 seed characterization sample 4201031

Doing analysis at TEMP = -17.882400 and TNOM = 27.000000

Using SPARSE 1.3 as Direct Linear Solver

Initial Transient Solution
--------------------------

Node                                   Voltage
----                                   -------
vdd                                    1.81894
in                                           0
out                                    1.81894
pmid                                   1.81894
vin#branch                                   0
vdd#branch                        -4.40987e-12

 Reference value :  4.57876e-08
 Reference value :  1.05664e-07
No. of Data Rows : 60048

  Measurements for Transient Analysis

tphl                =  6.74921e-11 targ=  2.08124e-09 trig=  2.01375e-09
tplh                =  2.79117e-10 targ=  2.23204e-08 trig=  2.20412e-08
i_vdd_avg           =  -6.34610e-06 from=  5.00000e-09 to=  1.10002e-07
power_avg_uw        =  1.15432e+01


Total analysis time (seconds) = 0.481183

Total elapsed time (seconds) = 0.552 

Total DRAM available = 16384.000 MB.
DRAM currently available =  132.375 MB.
Maximum ngspice program size =   12.562 MB.
Current ngspice program size =   11.688 MB.

