
Note: No compatibility mode selected!


Circuit: NAND2 seed characterization sample 4201002

Doing analysis at TEMP = -9.040370 and TNOM = 27.000000

Using SPARSE 1.3 as Direct Linear Solver

Initial Transient Solution
--------------------------

Node                                   Voltage
----                                   -------
vdd                                    1.69883
in                                           0
out                                    1.69883
nmid                                 0.0333368
vin#branch                                   0
vdd#branch                        -1.84416e-12

 Reference value :  4.42639e-08
 Reference value :  1.06477e-07
No. of Data Rows : 60041

  Measurements for Transient Analysis

tphl                =  1.14116e-10 targ=  2.24556e-09 trig=  2.13144e-09
tplh                =  7.54646e-11 targ=  2.24698e-08 trig=  2.23943e-08
i_vdd_avg           =  -9.58545e-07 from=  5.00000e-09 to=  1.10001e-07
power_avg_uw        =  1.62840e+00


Total analysis time (seconds) = 0.468501

Total elapsed time (seconds) = 0.548 

Total DRAM available = 16384.000 MB.
DRAM currently available =  136.125 MB.
Maximum ngspice program size =   13.641 MB.
Current ngspice program size =   12.969 MB.

