
Note: No compatibility mode selected!


Circuit: NOR2 seed characterization sample 4201027

Doing analysis at TEMP = 28.654100 and TNOM = 27.000000

Using SPARSE 1.3 as Direct Linear Solver

Initial Transient Solution
--------------------------

Node                                   Voltage
----                                   -------
vdd                                    1.95479
in                                           0
out                                    1.95479
pmid                                   1.95479
vin#branch                                   0
vdd#branch                         -4.5395e-11

 Reference value :  4.19375e-08
 Reference value :  1.02816e-07
No. of Data Rows : 60044

  Measurements for Transient Analysis

tphl                =  4.43912e-11 targ=  2.18452e-09 trig=  2.14013e-09
tplh                =  1.84711e-10 targ=  2.26051e-08 trig=  2.24204e-08
i_vdd_avg           =  -2.20671e-06 from=  5.00000e-09 to=  1.10002e-07
power_avg_uw        =  4.31365e+00


Total analysis time (seconds) = 0.476902

Total elapsed time (seconds) = 0.565 

Total DRAM available = 16384.000 MB.
DRAM currently available =  132.516 MB.
Maximum ngspice program size =   13.047 MB.
Current ngspice program size =   12.156 MB.

