
Note: No compatibility mode selected!


Circuit: NAND2 seed characterization sample 4201014

Doing analysis at TEMP = 76.233900 and TNOM = 27.000000

Using SPARSE 1.3 as Direct Linear Solver

Initial Transient Solution
--------------------------

Node                                   Voltage
----                                   -------
vdd                                    1.80522
in                                           0
out                                    1.80522
nmid                                 0.0570018
vin#branch                                   0
vdd#branch                        -5.20455e-11

 Reference value :  4.71611e-08
 Reference value :  1.08923e-07
No. of Data Rows : 60044

  Measurements for Transient Analysis

tphl                =  2.28284e-10 targ=  2.43935e-09 trig=  2.21106e-09
tplh                =  1.08423e-10 targ=  2.27416e-08 trig=  2.26332e-08
i_vdd_avg           =  -3.29488e-06 from=  5.00000e-09 to=  1.10001e-07
power_avg_uw        =  5.94799e+00


Total analysis time (seconds) = 0.469182

Total elapsed time (seconds) = 0.538 

Total DRAM available = 16384.000 MB.
DRAM currently available =  143.469 MB.
Maximum ngspice program size =   12.562 MB.
Current ngspice program size =   11.938 MB.

