
Note: No compatibility mode selected!


Circuit: INV seed characterization sample 4201001

Doing analysis at TEMP = 24.751500 and TNOM = 27.000000

Using SPARSE 1.3 as Direct Linear Solver

Initial Transient Solution
--------------------------

Node                                   Voltage
----                                   -------
vdd                                    1.64674
in                                           0
out                                    1.64674
vin#branch                                   0
vdd#branch                        -8.84617e-12

 Reference value :  7.15775e-08
No. of Data Rows : 60047

  Measurements for Transient Analysis

tphl                =  2.42259e-10 targ=  2.44890e-09 trig=  2.20664e-09
tplh                =  3.00818e-10 targ=  2.29207e-08 trig=  2.26199e-08
i_vdd_avg           =  -4.15909e-06 from=  5.00000e-09 to=  1.10002e-07
power_avg_uw        =  6.84894e+00


Total analysis time (seconds) = 0.300482

Total elapsed time (seconds) = 0.368 

Total DRAM available = 16384.000 MB.
DRAM currently available =  136.125 MB.
Maximum ngspice program size =   12.562 MB.
Current ngspice program size =   11.625 MB.

