
Note: No compatibility mode selected!


Circuit: NOR2 seed characterization sample 4201019

Doing analysis at TEMP = 87.883000 and TNOM = 27.000000

Using SPARSE 1.3 as Direct Linear Solver

Initial Transient Solution
--------------------------

Node                                   Voltage
----                                   -------
vdd                                    1.79956
in                                           0
out                                    1.79956
pmid                                   1.79956
vin#branch                                   0
vdd#branch                        -5.12525e-10

 Reference value :  4.62573e-08
 Reference value :  1.07470e-07
No. of Data Rows : 60044

  Measurements for Transient Analysis

tphl                =  1.46144e-10 targ=  2.29831e-09 trig=  2.15217e-09
tplh                =  6.21427e-10 targ=  2.30779e-08 trig=  2.24565e-08
i_vdd_avg           =  -3.93906e-06 from=  5.00000e-09 to=  1.10002e-07
power_avg_uw        =  7.08857e+00


Total analysis time (seconds) = 0.473962

Total elapsed time (seconds) = 0.544 

Total DRAM available = 16384.000 MB.
DRAM currently available =  153.344 MB.
Maximum ngspice program size =   12.562 MB.
Current ngspice program size =   11.594 MB.

