
Note: No compatibility mode selected!


Circuit: XOR2 seed characterization sample 4203033

Doing analysis at TEMP = 32.103700 and TNOM = 27.000000

Using SPARSE 1.3 as Direct Linear Solver

Initial Transient Solution
--------------------------

Node                                   Voltage
----                                   -------
vdd                                    1.78752
in                                           0
b                                      1.78752
abar                                   1.78752
bbar                               2.97095e-09
out                                    1.78752
vb#branch                                    0
vin#branch                         1.39112e-11
vdd#branch                        -3.20564e-11

 Reference value :  2.18617e-08
 Reference value :  5.16437e-08
 Reference value :  8.57117e-08
No. of Data Rows : 60041

  Measurements for Transient Analysis

tphl                =  3.21698e-10 targ=  2.55404e-09 trig=  2.23234e-09
tplh                =  3.28805e-10 targ=  2.30258e-08 trig=  2.26970e-08
i_vdd_avg           =  -3.75214e-06 from=  5.00000e-09 to=  1.10000e-07
power_avg_uw        =  6.70703e+00


Total analysis time (seconds) = 0.881818

Total elapsed time (seconds) = 0.964 

Total DRAM available = 16384.000 MB.
DRAM currently available =  201.281 MB.
Maximum ngspice program size =   12.578 MB.
Current ngspice program size =   11.734 MB.

