
Note: No compatibility mode selected!


Circuit: XOR2 seed characterization sample 4203025

Doing analysis at TEMP = 26.581100 and TNOM = 27.000000

Using SPARSE 1.3 as Direct Linear Solver

Initial Transient Solution
--------------------------

Node                                   Voltage
----                                   -------
vdd                                    1.85222
in                                           0
b                                      1.85222
abar                                   1.85222
bbar                               2.31144e-09
out                                    1.85222
vb#branch                                    0
vin#branch                         1.15152e-11
vdd#branch                        -2.81471e-11

 Reference value :  2.45411e-08
 Reference value :  5.88970e-08
 Reference value :  9.14190e-08
No. of Data Rows : 60044

  Measurements for Transient Analysis

tphl                =  2.34719e-10 targ=  2.28474e-09 trig=  2.05002e-09
tplh                =  2.78587e-10 targ=  2.24286e-08 trig=  2.21501e-08
i_vdd_avg           =  -4.13625e-06 from=  5.00000e-09 to=  1.10001e-07
power_avg_uw        =  7.66125e+00


Total analysis time (seconds) = 0.84507

Total elapsed time (seconds) = 0.929 

Total DRAM available = 16384.000 MB.
DRAM currently available =  145.812 MB.
Maximum ngspice program size =   12.562 MB.
Current ngspice program size =   11.594 MB.

