
Note: No compatibility mode selected!


Circuit: NOR2 seed characterization sample 4203016

Doing analysis at TEMP = 46.521900 and TNOM = 27.000000

Using SPARSE 1.3 as Direct Linear Solver

Initial Transient Solution
--------------------------

Node                                   Voltage
----                                   -------
vdd                                    1.63687
in                                           0
out                                    1.63687
pmid                                   1.63687
vin#branch                                   0
vdd#branch                        -5.51285e-11

 Reference value :  4.51995e-08
 Reference value :  1.04952e-07
No. of Data Rows : 60044

  Measurements for Transient Analysis

tphl                =  1.41483e-10 targ=  2.21572e-09 trig=  2.07424e-09
tplh                =  6.64506e-10 targ=  2.28872e-08 trig=  2.22227e-08
i_vdd_avg           =  -4.92437e-06 from=  5.00000e-09 to=  1.10002e-07
power_avg_uw        =  8.06056e+00


Total analysis time (seconds) = 0.480222

Total elapsed time (seconds) = 0.553 

Total DRAM available = 16384.000 MB.
DRAM currently available =  135.656 MB.
Maximum ngspice program size =   12.562 MB.
Current ngspice program size =   11.594 MB.

