
Note: No compatibility mode selected!


Circuit: NAND2 seed characterization sample 4203004

Doing analysis at TEMP = 74.775100 and TNOM = 27.000000

Using SPARSE 1.3 as Direct Linear Solver

Initial Transient Solution
--------------------------

Node                                   Voltage
----                                   -------
vdd                                    1.72187
in                                           0
out                                    1.72187
nmid                                 0.0557981
vin#branch                                   0
vdd#branch                        -8.79077e-12

 Reference value :  4.71312e-08
 Reference value :  1.08687e-07
No. of Data Rows : 60044

  Measurements for Transient Analysis

tphl                =  1.17951e-09 targ=  3.33461e-09 trig=  2.15510e-09
tplh                =  6.10224e-10 targ=  2.30755e-08 trig=  2.24653e-08
i_vdd_avg           =  -3.81520e-06 from=  5.00000e-09 to=  1.10001e-07
power_avg_uw        =  6.56928e+00


Total analysis time (seconds) = 0.470043

Total elapsed time (seconds) = 0.539 

Total DRAM available = 16384.000 MB.
DRAM currently available =  113.641 MB.
Maximum ngspice program size =   12.562 MB.
Current ngspice program size =   11.906 MB.

