
Note: No compatibility mode selected!


Circuit: NAND2 seed characterization sample 4203037

Doing analysis at TEMP = 66.039600 and TNOM = 27.000000

Using SPARSE 1.3 as Direct Linear Solver

Initial Transient Solution
--------------------------

Node                                   Voltage
----                                   -------
vdd                                    1.92014
in                                           0
out                                    1.92014
nmid                                 0.0590356
vin#branch                                   0
vdd#branch                        -1.58221e-11

 Reference value :  4.53912e-08
 Reference value :  1.05511e-07
No. of Data Rows : 60044

  Measurements for Transient Analysis

tphl                =  3.93802e-10 targ=  2.50189e-09 trig=  2.10809e-09
tplh                =  1.33108e-10 targ=  2.24574e-08 trig=  2.23243e-08
i_vdd_avg           =  -5.31722e-06 from=  5.00000e-09 to=  1.10001e-07
power_avg_uw        =  1.02098e+01


Total analysis time (seconds) = 0.480786

Total elapsed time (seconds) = 0.553 

Total DRAM available = 16384.000 MB.
DRAM currently available =  250.094 MB.
Maximum ngspice program size =   12.562 MB.
Current ngspice program size =   11.625 MB.

