
Note: No compatibility mode selected!


Circuit: XOR2 seed characterization sample 4203048

Doing analysis at TEMP = -2.709530 and TNOM = 27.000000

Using SPARSE 1.3 as Direct Linear Solver

Initial Transient Solution
--------------------------

Node                                   Voltage
----                                   -------
vdd                                    1.78165
in                                           0
b                                      1.78165
abar                                   1.78165
bbar                               1.34229e-09
out                                    1.78165
vb#branch                                    0
vin#branch                         3.01652e-12
vdd#branch                        -1.29109e-11

 Reference value :  2.37821e-08
 Reference value :  5.62566e-08
 Reference value :  8.88306e-08
No. of Data Rows : 60044

  Measurements for Transient Analysis

tphl                =  2.93888e-10 targ=  2.41468e-09 trig=  2.12079e-09
tplh                =  3.08787e-10 targ=  2.26711e-08 trig=  2.23624e-08
i_vdd_avg           =  -6.05803e-06 from=  5.00000e-09 to=  1.10000e-07
power_avg_uw        =  1.07933e+01


Total analysis time (seconds) = 0.869355

Total elapsed time (seconds) = 0.948 

Total DRAM available = 16384.000 MB.
DRAM currently available =  237.750 MB.
Maximum ngspice program size =   12.578 MB.
Current ngspice program size =   12.141 MB.

