
Note: No compatibility mode selected!


Circuit: NOR2 seed characterization sample 4203047

Doing analysis at TEMP = 31.319300 and TNOM = 27.000000

Using SPARSE 1.3 as Direct Linear Solver

Initial Transient Solution
--------------------------

Node                                   Voltage
----                                   -------
vdd                                    1.73597
in                                           0
out                                    1.73597
pmid                                   1.73597
vin#branch                                   0
vdd#branch                        -5.36037e-11

 Reference value :  4.20210e-08
 Reference value :  9.81466e-08
No. of Data Rows : 60044

  Measurements for Transient Analysis

tphl                =  4.83666e-11 targ=  2.09415e-09 trig=  2.04578e-09
tplh                =  1.69911e-10 targ=  2.23073e-08 trig=  2.21373e-08
i_vdd_avg           =  -3.03867e-06 from=  5.00000e-09 to=  1.10000e-07
power_avg_uw        =  5.27503e+00


Total analysis time (seconds) = 0.519753

Total elapsed time (seconds) = 0.596 

Total DRAM available = 16384.000 MB.
DRAM currently available =  207.578 MB.
Maximum ngspice program size =   12.562 MB.
Current ngspice program size =   12.156 MB.

