
Note: No compatibility mode selected!


Circuit: NOR2 seed characterization sample 4203018

Doing analysis at TEMP = 59.030100 and TNOM = 27.000000

Using SPARSE 1.3 as Direct Linear Solver

Initial Transient Solution
--------------------------

Node                                   Voltage
----                                   -------
vdd                                    1.87813
in                                           0
out                                    1.87813
pmid                                   1.87813
vin#branch                                   0
vdd#branch                        -5.87883e-11

 Reference value :  3.95243e-08
 Reference value :  9.38697e-08
No. of Data Rows : 60041

  Measurements for Transient Analysis

tphl                =  1.47220e-10 targ=  2.23356e-09 trig=  2.08634e-09
tplh                =  5.37953e-10 targ=  2.27970e-08 trig=  2.22590e-08
i_vdd_avg           =  -3.14356e-06 from=  5.00000e-09 to=  1.10000e-07
power_avg_uw        =  5.90401e+00


Total analysis time (seconds) = 0.541626

Total elapsed time (seconds) = 0.619 

Total DRAM available = 16384.000 MB.
DRAM currently available =  178.266 MB.
Maximum ngspice program size =   12.562 MB.
Current ngspice program size =   11.625 MB.

