
Note: No compatibility mode selected!


Circuit: NAND2 seed characterization sample 6120042

Doing analysis at TEMP = 84.907000 and TNOM = 27.000000

Using SPARSE 1.3 as Direct Linear Solver

Initial Transient Solution
--------------------------

Node                                   Voltage
----                                   -------
vdd                                    1.76637
in                                           0
out                                    1.76637
nmid                                 0.0520477
vin#branch                                   0
vdd#branch                        -8.71889e-12

 Reference value :  3.44003e-08
 Reference value :  7.91023e-08
No. of Data Rows : 60041

  Measurements for Transient Analysis

tphl                =  2.95808e-10 targ=  2.44813e-09 trig=  2.15232e-09
tplh                =  1.41841e-10 targ=  2.25988e-08 trig=  2.24570e-08
i_vdd_avg           =  -3.44029e-06 from=  5.00000e-09 to=  1.10000e-07
power_avg_uw        =  6.07682e+00


Total analysis time (seconds) = 0.649215

Total elapsed time (seconds) = 0.737 

Total DRAM available = 16384.000 MB.
DRAM currently available =   92.375 MB.
Maximum ngspice program size =   12.828 MB.
Current ngspice program size =   12.828 MB.

