
Note: No compatibility mode selected!


Circuit: NOR2 seed characterization sample 6120050

Doing analysis at TEMP = 24.910400 and TNOM = 27.000000

Using SPARSE 1.3 as Direct Linear Solver

Initial Transient Solution
--------------------------

Node                                   Voltage
----                                   -------
vdd                                    1.89753
in                                           0
out                                    1.89753
pmid                                   1.89753
vin#branch                                   0
vdd#branch                        -5.27047e-12

 Reference value :  2.25590e-08
 Reference value :  6.70390e-08
 Reference value :  1.18137e-07
No. of Data Rows : 60044

  Measurements for Transient Analysis

tphl                =  8.14641e-11 targ=  2.25346e-09 trig=  2.17200e-09
tplh                =  2.33220e-10 targ=  2.27492e-08 trig=  2.25160e-08
i_vdd_avg           =  -2.20226e-06 from=  5.00000e-09 to=  1.10001e-07
power_avg_uw        =  4.17886e+00


Total analysis time (seconds) = 0.65297

Total elapsed time (seconds) = 0.757 

Total DRAM available = 16384.000 MB.
DRAM currently available =   92.375 MB.
Maximum ngspice program size =   13.406 MB.
Current ngspice program size =   13.359 MB.

