
Note: No compatibility mode selected!


Circuit: INV seed characterization sample 6120020

Doing analysis at TEMP = -12.080500 and TNOM = 27.000000

Using SPARSE 1.3 as Direct Linear Solver

Initial Transient Solution
--------------------------

Node                                   Voltage
----                                   -------
vdd                                    1.87004
in                                           0
out                                    1.87004
vin#branch                                   0
vdd#branch                        -1.89895e-12

 Reference value :  5.71287e-08
No. of Data Rows : 60044

  Measurements for Transient Analysis

tphl                =  1.07230e-10 targ=  2.14108e-09 trig=  2.03385e-09
tplh                =  1.45899e-10 targ=  2.22474e-08 trig=  2.21015e-08
i_vdd_avg           =  -2.91507e-06 from=  5.00000e-09 to=  1.10000e-07
power_avg_uw        =  5.45130e+00


Total analysis time (seconds) = 0.331119

Total elapsed time (seconds) = 0.418 

Total DRAM available = 16384.000 MB.
DRAM currently available =   88.609 MB.
Maximum ngspice program size =   14.734 MB.
Current ngspice program size =   14.734 MB.

