
Note: No compatibility mode selected!


Circuit: INV seed characterization sample 6120009

Doing analysis at TEMP = 82.257600 and TNOM = 27.000000

Using SPARSE 1.3 as Direct Linear Solver

Initial Transient Solution
--------------------------

Node                                   Voltage
----                                   -------
vdd                                    1.74813
in                                           0
out                                    1.74813
vin#branch                                   0
vdd#branch                        -4.34107e-11

 Reference value :  5.59239e-08
No. of Data Rows : 60041

  Measurements for Transient Analysis

tphl                =  1.99231e-10 targ=  2.41767e-09 trig=  2.21844e-09
tplh                =  2.08301e-10 targ=  2.28636e-08 trig=  2.26553e-08
i_vdd_avg           =  -3.88086e-06 from=  5.00000e-09 to=  1.10001e-07
power_avg_uw        =  6.78425e+00


Total analysis time (seconds) = 0.328221

Total elapsed time (seconds) = 0.421 

Total DRAM available = 16384.000 MB.
DRAM currently available =   81.281 MB.
Maximum ngspice program size =   17.016 MB.
Current ngspice program size =   17.016 MB.

