
Note: No compatibility mode selected!


Circuit: XOR2 seed characterization sample 6120095

Doing analysis at TEMP = 67.767900 and TNOM = 27.000000

Using SPARSE 1.3 as Direct Linear Solver

Initial Transient Solution
--------------------------

Node                                   Voltage
----                                   -------
vdd                                    1.68512
in                                           0
b                                      1.68512
abar                                   1.68512
bbar                                1.6729e-09
out                                    1.68512
vb#branch                                    0
vin#branch                         2.48066e-11
vdd#branch                        -5.13945e-11

 Reference value :  1.17398e-08
 Reference value :  3.68926e-08
 Reference value :  6.59066e-08
 Reference value :  9.93658e-08
No. of Data Rows : 60041

  Measurements for Transient Analysis

tphl                =  2.04110e-10 targ=  2.28650e-09 trig=  2.08239e-09
tplh                =  2.67261e-10 targ=  2.25144e-08 trig=  2.22472e-08
i_vdd_avg           =  -4.14389e-06 from=  5.00000e-09 to=  1.10001e-07
power_avg_uw        =  6.98296e+00


Total analysis time (seconds) = 1.03153

Total elapsed time (seconds) = 1.147 

Total DRAM available = 16384.000 MB.
DRAM currently available =  109.172 MB.
Maximum ngspice program size =   15.578 MB.
Current ngspice program size =   15.578 MB.

