
Note: No compatibility mode selected!


Circuit: NAND2 seed characterization sample 6120026

Doing analysis at TEMP = 59.370300 and TNOM = 27.000000

Using SPARSE 1.3 as Direct Linear Solver

Initial Transient Solution
--------------------------

Node                                   Voltage
----                                   -------
vdd                                    1.84928
in                                           0
out                                    1.84928
nmid                                 0.0500916
vin#branch                                   0
vdd#branch                        -2.90719e-12

 Reference value :  3.53637e-08
 Reference value :  9.38083e-08
No. of Data Rows : 60047

  Measurements for Transient Analysis

tphl                =  2.43625e-10 targ=  2.45429e-09 trig=  2.21067e-09
tplh                =  1.34850e-10 targ=  2.27669e-08 trig=  2.26320e-08
i_vdd_avg           =  -1.88450e-06 from=  5.00000e-09 to=  1.10002e-07
power_avg_uw        =  3.48497e+00


Total analysis time (seconds) = 0.51212

Total elapsed time (seconds) = 0.608 

Total DRAM available = 16384.000 MB.
DRAM currently available =   92.375 MB.
Maximum ngspice program size =   16.359 MB.
Current ngspice program size =   16.359 MB.

