
Note: No compatibility mode selected!


Circuit: NAND2 seed characterization sample 6120029

Doing analysis at TEMP = 73.585400 and TNOM = 27.000000

Using SPARSE 1.3 as Direct Linear Solver

Initial Transient Solution
--------------------------

Node                                   Voltage
----                                   -------
vdd                                    1.62351
in                                           0
out                                    1.62351
nmid                                 0.0486747
vin#branch                                   0
vdd#branch                        -7.00343e-12

 Reference value :  3.34122e-08
 Reference value :  9.28636e-08
No. of Data Rows : 60041

  Measurements for Transient Analysis

tphl                =  3.73884e-10 targ=  2.50119e-09 trig=  2.12730e-09
tplh                =  1.63850e-10 targ=  2.25458e-08 trig=  2.23819e-08
i_vdd_avg           =  -5.97664e-06 from=  5.00000e-09 to=  1.10000e-07
power_avg_uw        =  9.70313e+00


Total analysis time (seconds) = 0.517284

Total elapsed time (seconds) = 0.617 

Total DRAM available = 16384.000 MB.
DRAM currently available =   92.375 MB.
Maximum ngspice program size =   14.828 MB.
Current ngspice program size =   14.828 MB.

