
Note: No compatibility mode selected!


Circuit: NAND2 seed characterization sample 6120037

Doing analysis at TEMP = -9.723900 and TNOM = 27.000000

Using SPARSE 1.3 as Direct Linear Solver

Initial Transient Solution
--------------------------

Node                                   Voltage
----                                   -------
vdd                                    1.87038
in                                           0
out                                    1.87038
nmid                                0.00739579
vin#branch                                   0
vdd#branch                         -1.9016e-12

 Reference value :  3.53237e-08
 Reference value :  8.08597e-08
No. of Data Rows : 60044

  Measurements for Transient Analysis

tphl                =  1.71328e-10 targ=  2.24851e-09 trig=  2.07718e-09
tplh                =  1.02532e-10 targ=  2.23341e-08 trig=  2.22315e-08
i_vdd_avg           =  -2.81050e-06 from=  5.00000e-09 to=  1.10002e-07
power_avg_uw        =  5.25669e+00


Total analysis time (seconds) = 0.640105

Total elapsed time (seconds) = 0.730 

Total DRAM available = 16384.000 MB.
DRAM currently available =   92.375 MB.
Maximum ngspice program size =   13.781 MB.
Current ngspice program size =   13.781 MB.

