
Note: Compatibility modes selected: hs a


Circuit: SKY130 library cell nor2_4 A_to_Y__B=0

option SCALE: Scale is set to 1e-06 for instance and model parameters
Doing analysis at TEMP = 82.047101 and TNOM = 27.000000

Using KLU as Direct Linear Solver
 Reference value :  1.32214e-08
 Reference value :  5.93638e-08
 Reference value :  1.03725e-07
 Reference value :  1.49195e-07
 Reference value :  1.91529e-07
 Reference value :  2.39179e-07
 Reference value :  2.81850e-07
 Reference value :  3.25950e-07
No. of Data Rows : 68030

  Measurements for Transient Analysis

tphl                =  3.15163e-10 targ=  2.63258e-08 trig=  2.60107e-08
tplh                =  1.16849e-09 targ=  1.01200e-07 trig=  1.00032e-07
i_vdd_avg           =  -1.81070e-06 from=  1.00000e-08 to=  3.30000e-07
power_avg_uw        =  2.98053e+00


Total analysis time (seconds) = 1.95364

Total elapsed time (seconds) = 2.129 

Total DRAM available = 16384.000 MB.
DRAM currently available =  135.641 MB.
Maximum ngspice program size =   27.203 MB.
Current ngspice program size =   27.203 MB.

