
Note: Compatibility modes selected: hs a


Circuit: SKY130 library cell nor2_4 A_to_Y__B=0

option SCALE: Scale is set to 1e-06 for instance and model parameters
Doing analysis at TEMP = 5.860908 and TNOM = 27.000000

Using KLU as Direct Linear Solver
 Reference value :  1.29064e-08
 Reference value :  5.76068e-08
 Reference value :  1.04346e-07
 Reference value :  1.46466e-07
 Reference value :  1.89247e-07
 Reference value :  2.35667e-07
 Reference value :  2.78996e-07
 Reference value :  3.24921e-07
No. of Data Rows : 68032

  Measurements for Transient Analysis

tphl                =  3.00133e-10 targ=  2.50798e-08 trig=  2.47797e-08
tplh                =  7.99407e-10 targ=  9.71384e-08 trig=  9.63390e-08
i_vdd_avg           =  -1.80200e-06 from=  1.00000e-08 to=  3.30001e-07
power_avg_uw        =  3.48763e+00


Total analysis time (seconds) = 1.92771

Total elapsed time (seconds) = 2.104 

Total DRAM available = 16384.000 MB.
DRAM currently available =  102.875 MB.
Maximum ngspice program size =   26.031 MB.
Current ngspice program size =   26.031 MB.

