
Note: Compatibility modes selected: hs a


Circuit: SKY130 library cell xor2_4 A_to_X__B=0

option SCALE: Scale is set to 1e-06 for instance and model parameters
Doing analysis at TEMP = 83.984955 and TNOM = 27.000000

Using KLU as Direct Linear Solver
 Reference value :  5.24140e-09
 Reference value :  2.22764e-08
 Reference value :  3.97139e-08
 Reference value :  5.75939e-08
 Reference value :  7.42539e-08
 Reference value :  9.19539e-08
 Reference value :  1.09244e-07
 Reference value :  1.25670e-07
 Reference value :  1.42740e-07
 Reference value :  1.59595e-07
 Reference value :  1.76125e-07
 Reference value :  1.94103e-07
 Reference value :  2.11474e-07
 Reference value :  2.28749e-07
 Reference value :  2.45804e-07
 Reference value :  2.63124e-07
 Reference value :  2.80630e-07
 Reference value :  2.98280e-07
 Reference value :  3.15565e-07
 Reference value :  3.31860e-07
No. of Data Rows : 68030

  Measurements for Transient Analysis

tplh                =  -6.52529e-10 targ=  2.90257e-08 trig=  2.96782e-08
tphl                =  1.11462e-09 targ=  1.12149e-07 trig=  1.11035e-07
i_vdd_avg           =  -4.40491e-06 from=  1.00000e-08 to=  3.30000e-07
power_avg_uw        =  8.43132e+00


Total analysis time (seconds) = 4.99521

Total elapsed time (seconds) = 5.168 

Total DRAM available = 16384.000 MB.
DRAM currently available =  130.578 MB.
Maximum ngspice program size =   28.406 MB.
Current ngspice program size =   28.406 MB.

