
Note: Compatibility modes selected: hs a


Circuit: SKY130 library cell mux2_4 A0_to_X__A1=0,S=0

option SCALE: Scale is set to 1e-06 for instance and model parameters
Doing analysis at TEMP = 84.624962 and TNOM = 27.000000

Using KLU as Direct Linear Solver
 Reference value :  1.04864e-08
 Reference value :  4.60013e-08
 Reference value :  8.27913e-08
 Reference value :  1.19615e-07
 Reference value :  1.55210e-07
 Reference value :  1.94741e-07
 Reference value :  2.32401e-07
 Reference value :  2.69735e-07
 Reference value :  3.04415e-07
 Reference value :  3.39190e-07
No. of Data Rows : 68032

  Measurements for Transient Analysis

tplh                =  3.46390e-10 targ=  2.48108e-08 trig=  2.44644e-08
tphl                =  4.84584e-10 targ=  9.58778e-08 trig=  9.53932e-08
i_vdd_avg           =  -7.98418e-07 from=  1.00000e-08 to=  3.30000e-07
power_avg_uw        =  1.40013e+00


Total analysis time (seconds) = 2.38668

Total elapsed time (seconds) = 2.544 

Total DRAM available = 16384.000 MB.
DRAM currently available =  161.641 MB.
Maximum ngspice program size =   27.375 MB.
Current ngspice program size =   27.375 MB.

