
Note: Compatibility modes selected: hs a


Circuit: SKY130 library cell nand3_1 A_to_Y__B=1,C=1

option SCALE: Scale is set to 1e-06 for instance and model parameters
Doing analysis at TEMP = 61.408804 and TNOM = 27.000000

Using KLU as Direct Linear Solver
 Reference value :  3.43872e-08
 Reference value :  1.30057e-07
 Reference value :  2.29692e-07
 Reference value :  3.31897e-07
No. of Data Rows : 68032

  Measurements for Transient Analysis

tphl                =  4.91103e-10 targ=  2.93409e-08 trig=  2.88498e-08
tplh                =  1.16222e-09 targ=  1.09712e-07 trig=  1.08550e-07
i_vdd_avg           =  -1.12840e-07 from=  1.00000e-08 to=  3.30002e-07
power_avg_uw        =  2.04305e-01


Total analysis time (seconds) = 0.941234

Total elapsed time (seconds) = 1.116 

Total DRAM available = 16384.000 MB.
DRAM currently available =  157.109 MB.
Maximum ngspice program size =   25.547 MB.
Current ngspice program size =   25.547 MB.

