
Note: Compatibility modes selected: hs a


Circuit: SKY130 library cell xor2_1 A_to_X__B=0

option SCALE: Scale is set to 1e-06 for instance and model parameters
Doing analysis at TEMP = 99.468035 and TNOM = 27.000000

Using KLU as Direct Linear Solver
 Reference value :  2.77325e-08
 Reference value :  9.13722e-08
 Reference value :  1.58652e-07
 Reference value :  2.24997e-07
 Reference value :  2.92207e-07
No. of Data Rows : 68032

  Measurements for Transient Analysis

tplh                =  -4.32716e-10 targ=  2.90271e-08 trig=  2.94598e-08
tphl                =  1.10236e-09 targ=  1.11482e-07 trig=  1.10380e-07
i_vdd_avg           =  -1.08609e-06 from=  1.00000e-08 to=  3.30002e-07
power_avg_uw        =  2.01016e+00


Total analysis time (seconds) = 1.30191

Total elapsed time (seconds) = 1.452 

Total DRAM available = 16384.000 MB.
DRAM currently available =  118.406 MB.
Maximum ngspice program size =   27.062 MB.
Current ngspice program size =   27.062 MB.

