
Note: Compatibility modes selected: hs a


Circuit: SKY130 library cell nand3_4 A_to_Y__B=1,C=1

option SCALE: Scale is set to 1e-06 for instance and model parameters
Doing analysis at TEMP = 7.205805 and TNOM = 27.000000

Using KLU as Direct Linear Solver
 Reference value :  6.00140e-09
 Reference value :  3.42253e-08
 Reference value :  6.30503e-08
 Reference value :  9.09803e-08
 Reference value :  1.18738e-07
 Reference value :  1.47108e-07
 Reference value :  1.75163e-07
 Reference value :  2.02845e-07
 Reference value :  2.29985e-07
 Reference value :  2.57750e-07
 Reference value :  2.85538e-07
 Reference value :  3.14063e-07
No. of Data Rows : 68034

  Measurements for Transient Analysis

tphl                =  -1.39042e-11 targ=  2.65475e-08 trig=  2.65614e-08
tplh                =  8.04035e-10 targ=  1.02488e-07 trig=  1.01684e-07
i_vdd_avg           =  -9.32683e-07 from=  1.00000e-08 to=  3.30003e-07
power_avg_uw        =  1.65170e+00


Total analysis time (seconds) = 3.07146

Total elapsed time (seconds) = 3.247 

Total DRAM available = 16384.000 MB.
DRAM currently available =   85.219 MB.
Maximum ngspice program size =   29.266 MB.
Current ngspice program size =   29.266 MB.

