
Note: Compatibility modes selected: hs a


Circuit: SKY130 library cell mux2_1 A0_to_X__A1=0,S=0

option SCALE: Scale is set to 1e-06 for instance and model parameters
Doing analysis at TEMP = -29.150706 and TNOM = 27.000000

Using KLU as Direct Linear Solver
 Reference value :  1.22314e-08
 Reference value :  6.47874e-08
 Reference value :  1.15707e-07
 Reference value :  1.66997e-07
 Reference value :  2.19897e-07
 Reference value :  2.71497e-07
 Reference value :  3.22507e-07
No. of Data Rows : 68032

  Measurements for Transient Analysis

tplh                =  2.20692e-09 targ=  3.21669e-08 trig=  2.99600e-08
tphl                =  3.01575e-09 targ=  1.14896e-07 trig=  1.11880e-07
i_vdd_avg           =  -2.30479e-06 from=  1.00000e-08 to=  3.30002e-07
power_avg_uw        =  4.36069e+00


Total analysis time (seconds) = 1.70642

Total elapsed time (seconds) = 1.897 

Total DRAM available = 16384.000 MB.
DRAM currently available =  163.234 MB.
Maximum ngspice program size =   28.609 MB.
Current ngspice program size =   28.609 MB.

