
Note: Compatibility modes selected: hs a


Circuit: SKY130 library cell xor2_4 A_to_X__B=0

option SCALE: Scale is set to 1e-06 for instance and model parameters
Doing analysis at TEMP = 98.652156 and TNOM = 27.000000

Using KLU as Direct Linear Solver
 Reference value :  3.24640e-09
 Reference value :  2.05064e-08
 Reference value :  3.76537e-08
 Reference value :  5.51487e-08
 Reference value :  7.26737e-08
 Reference value :  8.98837e-08
 Reference value :  1.06630e-07
 Reference value :  1.23720e-07
 Reference value :  1.41275e-07
 Reference value :  1.58030e-07
 Reference value :  1.75345e-07
 Reference value :  1.92714e-07
 Reference value :  2.09979e-07
 Reference value :  2.26599e-07
 Reference value :  2.44624e-07
 Reference value :  2.62484e-07
 Reference value :  2.79245e-07
 Reference value :  2.95860e-07
 Reference value :  3.13100e-07
 Reference value :  3.30740e-07
No. of Data Rows : 68032

  Measurements for Transient Analysis

tplh                =  -6.73436e-11 targ=  2.65632e-08 trig=  2.66306e-08
tphl                =  6.52152e-10 targ=  1.02544e-07 trig=  1.01892e-07
i_vdd_avg           =  -3.04023e-06 from=  1.00000e-08 to=  3.30005e-07
power_avg_uw        =  5.79028e+00


Total analysis time (seconds) = 5.00226

Total elapsed time (seconds) = 5.195 

Total DRAM available = 16384.000 MB.
DRAM currently available =  105.984 MB.
Maximum ngspice program size =   28.609 MB.
Current ngspice program size =   28.609 MB.

