
Note: Compatibility modes selected: hs a


Circuit: SKY130 library cell mux2_4 A0_to_X__A1=0,S=0

option SCALE: Scale is set to 1e-06 for instance and model parameters
Doing analysis at TEMP = -17.575463 and TNOM = 27.000000

Using KLU as Direct Linear Solver
 Reference value :  1.11464e-08
 Reference value :  4.65157e-08
 Reference value :  8.34607e-08
 Reference value :  1.19034e-07
 Reference value :  1.55354e-07
 Reference value :  1.91923e-07
 Reference value :  2.26996e-07
 Reference value :  2.62046e-07
 Reference value :  2.97464e-07
 Reference value :  3.34169e-07
No. of Data Rows : 68034

  Measurements for Transient Analysis

tplh                =  3.92526e-10 targ=  2.99791e-08 trig=  2.95866e-08
tphl                =  2.03830e-09 targ=  1.12798e-07 trig=  1.10760e-07
i_vdd_avg           =  -1.48067e-06 from=  1.00000e-08 to=  3.30004e-07
power_avg_uw        =  2.69124e+00


Total analysis time (seconds) = 2.4409

Total elapsed time (seconds) = 2.612 

Total DRAM available = 16384.000 MB.
DRAM currently available =  145.984 MB.
Maximum ngspice program size =   28.531 MB.
Current ngspice program size =   28.531 MB.

