
Note: Compatibility modes selected: hs a


Circuit: SKY130 library cell inv_1 A_to_Y

option SCALE: Scale is set to 1e-06 for instance and model parameters
Doing analysis at TEMP = 105.031380 and TNOM = 27.000000

Using KLU as Direct Linear Solver
 Reference value :  1.33629e-07
No. of Data Rows : 68034

  Measurements for Transient Analysis

tphl                =  5.38631e-10 targ=  2.59153e-08 trig=  2.53767e-08
tplh                =  1.06604e-09 targ=  9.91961e-08 trig=  9.81301e-08
i_vdd_avg           =  -1.31909e-06 from=  1.00000e-08 to=  3.30004e-07
power_avg_uw        =  2.48724e+00


Total analysis time (seconds) = 0.311797

Total elapsed time (seconds) = 0.455 

Total DRAM available = 16384.000 MB.
DRAM currently available =  316.344 MB.
Maximum ngspice program size =   26.078 MB.
Current ngspice program size =   26.078 MB.

