
Note: Compatibility modes selected: hs a


Circuit: SKY130 library cell mux2_4 A0_to_X__A1=0,S=0

option SCALE: Scale is set to 1e-06 for instance and model parameters
Doing analysis at TEMP = 98.532799 and TNOM = 27.000000

Using KLU as Direct Linear Solver
 Reference value :  1.14914e-08
 Reference value :  4.72751e-08
 Reference value :  8.34951e-08
 Reference value :  1.18588e-07
 Reference value :  1.53618e-07
 Reference value :  1.89255e-07
 Reference value :  2.25250e-07
 Reference value :  2.61573e-07
 Reference value :  2.97358e-07
 Reference value :  3.33758e-07
No. of Data Rows : 68034

  Measurements for Transient Analysis

tplh                =  4.95179e-10 targ=  2.56565e-08 trig=  2.51613e-08
tphl                =  7.24939e-10 targ=  9.82089e-08 trig=  9.74839e-08
i_vdd_avg           =  -6.54810e-07 from=  1.00000e-08 to=  3.30003e-07
power_avg_uw        =  1.29588e+00


Total analysis time (seconds) = 2.42181

Total elapsed time (seconds) = 2.605 

Total DRAM available = 16384.000 MB.
DRAM currently available =  219.922 MB.
Maximum ngspice program size =   25.609 MB.
Current ngspice program size =   25.609 MB.

