
Note: Compatibility modes selected: hs a


Circuit: SKY130 library cell nand2_1 A_to_Y__B=1

option SCALE: Scale is set to 1e-06 for instance and model parameters
Doing analysis at TEMP = -6.198238 and TNOM = 27.000000

Using KLU as Direct Linear Solver
 Reference value :  6.12285e-08
 Reference value :  2.17793e-07
No. of Data Rows : 68032

  Measurements for Transient Analysis

tphl                =  1.13488e-09 targ=  2.83904e-08 trig=  2.72555e-08
tplh                =  2.53590e-09 targ=  1.06302e-07 trig=  1.03766e-07
i_vdd_avg           =  -2.29789e-06 from=  1.00000e-08 to=  3.30004e-07
power_avg_uw        =  4.38986e+00


Total analysis time (seconds) = 0.529055

Total elapsed time (seconds) = 0.679 

Total DRAM available = 16384.000 MB.
DRAM currently available =  101.219 MB.
Maximum ngspice program size =   26.875 MB.
Current ngspice program size =   26.875 MB.

