
Note: Compatibility modes selected: hs a


Circuit: SKY130 library cell nor2_4 A_to_Y__B=0

option SCALE: Scale is set to 1e-06 for instance and model parameters
Doing analysis at TEMP = 45.143425 and TNOM = 27.000000

Using KLU as Direct Linear Solver
 Reference value :  1.17764e-08
 Reference value :  5.73843e-08
 Reference value :  9.73393e-08
 Reference value :  1.41346e-07
 Reference value :  1.84988e-07
 Reference value :  2.30769e-07
 Reference value :  2.74214e-07
 Reference value :  3.16891e-07
No. of Data Rows : 68030

  Measurements for Transient Analysis

tphl                =  2.73400e-10 targ=  2.94543e-08 trig=  2.91809e-08
tplh                =  2.44893e-09 targ=  1.11992e-07 trig=  1.09543e-07
i_vdd_avg           =  -2.62702e-06 from=  1.00000e-08 to=  3.30001e-07
power_avg_uw        =  4.37265e+00


Total analysis time (seconds) = 2.02263

Total elapsed time (seconds) = 2.198 

Total DRAM available = 16384.000 MB.
DRAM currently available =  167.438 MB.
Maximum ngspice program size =   27.812 MB.
Current ngspice program size =   27.812 MB.

