
Note: Compatibility modes selected: hs a


Circuit: SKY130 library cell nor2_1 A_to_Y__B=0

option SCALE: Scale is set to 1e-06 for instance and model parameters
Doing analysis at TEMP = 40.152152 and TNOM = 27.000000

Using KLU as Direct Linear Solver
 Reference value :  5.28927e-08
 Reference value :  2.02253e-07
No. of Data Rows : 68032

  Measurements for Transient Analysis

tphl                =  1.23023e-09 targ=  2.66828e-08 trig=  2.54526e-08
tplh                =  3.10537e-09 targ=  1.01463e-07 trig=  9.83578e-08
i_vdd_avg           =  -1.03247e-06 from=  1.00000e-08 to=  3.30003e-07
power_avg_uw        =  1.73880e+00


Total analysis time (seconds) = 0.602533

Total elapsed time (seconds) = 0.744 

Total DRAM available = 16384.000 MB.
DRAM currently available =  133.578 MB.
Maximum ngspice program size =   25.516 MB.
Current ngspice program size =   25.516 MB.

