
Note: Compatibility modes selected: hs a


Circuit: SKY130 library cell inv_4 A_to_Y

option SCALE: Scale is set to 1e-06 for instance and model parameters
Doing analysis at TEMP = 8.831162 and TNOM = 27.000000

Using KLU as Direct Linear Solver
 Reference value :  3.75853e-08
 Reference value :  1.31598e-07
 Reference value :  2.21780e-07
 Reference value :  3.17613e-07
No. of Data Rows : 68034

  Measurements for Transient Analysis

tphl                =  4.30582e-10 targ=  2.89145e-08 trig=  2.84839e-08
tplh                =  1.86072e-09 targ=  1.09312e-07 trig=  1.07452e-07
i_vdd_avg           =  -7.63336e-07 from=  1.00000e-08 to=  3.30003e-07
power_avg_uw        =  1.26425e+00


Total analysis time (seconds) = 0.938286

Total elapsed time (seconds) = 1.080 

Total DRAM available = 16384.000 MB.
DRAM currently available =  170.594 MB.
Maximum ngspice program size =   25.828 MB.
Current ngspice program size =   25.828 MB.

