
Note: Compatibility modes selected: hs a


Circuit: SKY130 library cell xor2_4 A_to_X__B=0

option SCALE: Scale is set to 1e-06 for instance and model parameters
Doing analysis at TEMP = 82.795356 and TNOM = 27.000000

Using KLU as Direct Linear Solver
 Reference value :  3.02140e-09
 Reference value :  2.02964e-08
 Reference value :  3.57384e-08
 Reference value :  5.28284e-08
 Reference value :  7.07234e-08
 Reference value :  8.78034e-08
 Reference value :  1.05248e-07
 Reference value :  1.23314e-07
 Reference value :  1.39999e-07
 Reference value :  1.56064e-07
 Reference value :  1.73869e-07
 Reference value :  1.91683e-07
 Reference value :  2.07973e-07
 Reference value :  2.24743e-07
 Reference value :  2.43063e-07
 Reference value :  2.59998e-07
 Reference value :  2.76754e-07
 Reference value :  2.93764e-07
 Reference value :  3.11744e-07
 Reference value :  3.29479e-07
No. of Data Rows : 68032

  Measurements for Transient Analysis

tplh                =  2.79612e-10 targ=  2.95501e-08 trig=  2.92704e-08
tphl                =  1.16352e-09 targ=  1.10975e-07 trig=  1.09811e-07
i_vdd_avg           =  -2.96545e-06 from=  1.00000e-08 to=  3.30004e-07
power_avg_uw        =  5.43268e+00


Total analysis time (seconds) = 5.04266

Total elapsed time (seconds) = 5.248 

Total DRAM available = 16384.000 MB.
DRAM currently available =  155.625 MB.
Maximum ngspice program size =   30.562 MB.
Current ngspice program size =   30.562 MB.

