
Note: Compatibility modes selected: hs a


Circuit: SKY130 library cell mux2_4 A0_to_X__A1=0,S=0

option SCALE: Scale is set to 1e-06 for instance and model parameters
Doing analysis at TEMP = 124.977320 and TNOM = 27.000000

Using KLU as Direct Linear Solver
 Reference value :  1.17064e-08
 Reference value :  4.49983e-08
 Reference value :  7.95483e-08
 Reference value :  1.14834e-07
 Reference value :  1.51589e-07
 Reference value :  1.88103e-07
 Reference value :  2.23688e-07
 Reference value :  2.59994e-07
 Reference value :  2.94259e-07
 Reference value :  3.29364e-07
No. of Data Rows : 68032

  Measurements for Transient Analysis

tplh                =  2.11341e-10 targ=  2.49568e-08 trig=  2.47454e-08
tphl                =  4.01933e-10 targ=  9.66382e-08 trig=  9.62363e-08
i_vdd_avg           =  -5.34060e-07 from=  1.00000e-08 to=  3.30004e-07
power_avg_uw        =  9.11256e-01


Total analysis time (seconds) = 2.49012

Total elapsed time (seconds) = 2.662 

Total DRAM available = 16384.000 MB.
DRAM currently available =  196.188 MB.
Maximum ngspice program size =   24.953 MB.
Current ngspice program size =   24.953 MB.

