
Note: Compatibility modes selected: hs a


Circuit: SKY130 library cell oai21_1 A1_to_Y__A2=0,B1=1

option SCALE: Scale is set to 1e-06 for instance and model parameters
Doing analysis at TEMP = -39.949648 and TNOM = 27.000000

Using KLU as Direct Linear Solver
 Reference value :  3.30325e-08
 Reference value :  1.33095e-07
 Reference value :  2.36271e-07
 Reference value :  3.32270e-07
No. of Data Rows : 68034

  Measurements for Transient Analysis

tphl                =  1.31534e-09 targ=  3.03122e-08 trig=  2.89969e-08
tplh                =  3.86142e-09 targ=  1.12852e-07 trig=  1.08991e-07
i_vdd_avg           =  -1.45184e-06 from=  1.00000e-08 to=  3.30005e-07
power_avg_uw        =  2.82598e+00


Total analysis time (seconds) = 0.865748

Total elapsed time (seconds) = 1.032 

Total DRAM available = 16384.000 MB.
DRAM currently available =   90.500 MB.
Maximum ngspice program size =   25.328 MB.
Current ngspice program size =   25.328 MB.

