
Note: Compatibility modes selected: hs a


Circuit: SKY130 library cell mux2_1 A0_to_X__A1=0,S=0

option SCALE: Scale is set to 1e-06 for instance and model parameters
Doing analysis at TEMP = 101.229720 and TNOM = 27.000000

Using KLU as Direct Linear Solver
 Reference value :  1.59714e-08
 Reference value :  6.82839e-08
 Reference value :  1.21905e-07
 Reference value :  1.72635e-07
 Reference value :  2.20324e-07
 Reference value :  2.73415e-07
 Reference value :  3.29000e-07
No. of Data Rows : 68030

  Measurements for Transient Analysis

tplh                =  2.24301e-09 targ=  3.02437e-08 trig=  2.80007e-08
tphl                =  2.57280e-09 targ=  1.08575e-07 trig=  1.06002e-07
i_vdd_avg           =  -1.88817e-06 from=  1.00000e-08 to=  3.30000e-07
power_avg_uw        =  3.22843e+00


Total analysis time (seconds) = 1.66695

Total elapsed time (seconds) = 1.838 

Total DRAM available = 16384.000 MB.
DRAM currently available =  142.344 MB.
Maximum ngspice program size =   27.812 MB.
Current ngspice program size =   27.812 MB.

