
Note: Compatibility modes selected: hs a


Circuit: SKY130 library cell nand2_1 A_to_Y__B=1

option SCALE: Scale is set to 1e-06 for instance and model parameters
Doing analysis at TEMP = 101.610090 and TNOM = 27.000000

Using KLU as Direct Linear Solver
 Reference value :  5.92744e-08
 Reference value :  2.16079e-07
No. of Data Rows : 68030

  Measurements for Transient Analysis

tphl                =  1.31431e-09 targ=  2.75952e-08 trig=  2.62809e-08
tplh                =  1.92171e-09 targ=  1.02764e-07 trig=  1.00843e-07
i_vdd_avg           =  -2.15773e-06 from=  1.00000e-08 to=  3.30001e-07
power_avg_uw        =  3.88651e+00


Total analysis time (seconds) = 0.565487

Total elapsed time (seconds) = 0.712 

Total DRAM available = 16384.000 MB.
DRAM currently available =  126.391 MB.
Maximum ngspice program size =   26.047 MB.
Current ngspice program size =   26.047 MB.

