
Note: Compatibility modes selected: hs a


Circuit: SKY130 library cell aoi21_1 A1_to_Y__A2=1,B1=0

option SCALE: Scale is set to 1e-06 for instance and model parameters
Doing analysis at TEMP = 90.938082 and TNOM = 27.000000

Using KLU as Direct Linear Solver
 Reference value :  3.09925e-08
 Reference value :  1.29333e-07
 Reference value :  2.30038e-07
 Reference value :  3.34858e-07
No. of Data Rows : 68032

  Measurements for Transient Analysis

tphl                =  1.52543e-09 targ=  3.02031e-08 trig=  2.86777e-08
tplh                =  3.39472e-09 targ=  1.11428e-07 trig=  1.08033e-07
i_vdd_avg           =  -1.53136e-06 from=  1.00000e-08 to=  3.30003e-07
power_avg_uw        =  2.49586e+00


Total analysis time (seconds) = 0.876038

Total elapsed time (seconds) = 1.030 

Total DRAM available = 16384.000 MB.
DRAM currently available =  151.562 MB.
Maximum ngspice program size =   23.906 MB.
Current ngspice program size =   23.906 MB.

