
Note: Compatibility modes selected: hs a


Circuit: SKY130 library cell nand2_1 A_to_Y__B=1

option SCALE: Scale is set to 1e-06 for instance and model parameters
Doing analysis at TEMP = 46.093485 and TNOM = 27.000000

Using KLU as Direct Linear Solver
 Reference value :  5.22461e-08
 Reference value :  2.22906e-07
No. of Data Rows : 68034

  Measurements for Transient Analysis

tphl                =  6.65333e-10 targ=  2.51346e-08 trig=  2.44693e-08
tplh                =  8.42068e-10 targ=  9.62499e-08 trig=  9.54079e-08
i_vdd_avg           =  -9.24534e-07 from=  1.00000e-08 to=  3.30005e-07
power_avg_uw        =  1.81748e+00


Total analysis time (seconds) = 0.548572

Total elapsed time (seconds) = 0.698 

Total DRAM available = 16384.000 MB.
DRAM currently available =  101.219 MB.
Maximum ngspice program size =   24.156 MB.
Current ngspice program size =   24.156 MB.

