Note: Starting dynamic gmin stepping
Note: Dynamic gmin stepping completed

Note: Compatibility modes selected: hs a


Circuit: SKY130 library cell mux2_1 A0_to_X__A1=0,S=0

option SCALE: Scale is set to 1e-06 for instance and model parameters
Doing analysis at TEMP = 36.630898 and TNOM = 27.000000

Using KLU as Direct Linear Solver
 Reference value :  1.34314e-08
 Reference value :  6.62248e-08
 Reference value :  1.15032e-07
 Reference value :  1.68672e-07
 Reference value :  2.20565e-07
 Reference value :  2.74202e-07
 Reference value :  3.24997e-07
No. of Data Rows : 68030

  Measurements for Transient Analysis

tplh                =  7.91844e-10 targ=  2.63630e-08 trig=  2.55712e-08
tphl                =  9.46136e-10 targ=  9.96596e-08 trig=  9.87135e-08
i_vdd_avg           =  -1.57904e-06 from=  1.00000e-08 to=  3.30002e-07
power_avg_uw        =  2.74368e+00


Total analysis time (seconds) = 1.68783

Total elapsed time (seconds) = 1.873 

Total DRAM available = 16384.000 MB.
DRAM currently available =  119.609 MB.
Maximum ngspice program size =   27.297 MB.
Current ngspice program size =   27.297 MB.

