
Note: Compatibility modes selected: hs a


Circuit: SKY130 library cell oai21_4 A1_to_Y__A2=0,B1=1

option SCALE: Scale is set to 1e-06 for instance and model parameters
Doing analysis at TEMP = 124.592710 and TNOM = 27.000000

Using KLU as Direct Linear Solver
 Reference value :  6.22640e-09
 Reference value :  3.45914e-08
 Reference value :  6.07064e-08
 Reference value :  8.84614e-08
 Reference value :  1.14880e-07
 Reference value :  1.43250e-07
 Reference value :  1.72300e-07
 Reference value :  1.98891e-07
 Reference value :  2.27461e-07
 Reference value :  2.55091e-07
 Reference value :  2.82835e-07
 Reference value :  3.10255e-07
 Reference value :  3.39115e-07
No. of Data Rows : 68032

  Measurements for Transient Analysis

tphl                =  2.78093e-10 targ=  2.52575e-08 trig=  2.49795e-08
tplh                =  6.31287e-10 targ=  9.75696e-08 trig=  9.69384e-08
i_vdd_avg           =  -1.86850e-06 from=  1.00000e-08 to=  3.30000e-07
power_avg_uw        =  3.39583e+00


Total analysis time (seconds) = 3.13829

Total elapsed time (seconds) = 3.328 

Total DRAM available = 16384.000 MB.
DRAM currently available =  233.141 MB.
Maximum ngspice program size =   30.328 MB.
Current ngspice program size =   30.328 MB.

