
Note: Compatibility modes selected: hs a


Circuit: SKY130 library cell mux2_1 A0_to_X__A1=0,S=0

option SCALE: Scale is set to 1e-06 for instance and model parameters
Doing analysis at TEMP = 107.282080 and TNOM = 27.000000

Using KLU as Direct Linear Solver
 Reference value :  1.19814e-08
 Reference value :  6.49088e-08
 Reference value :  1.17200e-07
 Reference value :  1.71760e-07
 Reference value :  2.23329e-07
 Reference value :  2.75855e-07
 Reference value :  3.31205e-07
No. of Data Rows : 68030

  Measurements for Transient Analysis

tplh                =  1.18537e-09 targ=  2.54060e-08 trig=  2.42207e-08
tphl                =  9.20378e-10 targ=  9.55823e-08 trig=  9.46620e-08
i_vdd_avg           =  -1.55451e-06 from=  1.00000e-08 to=  3.30000e-07
power_avg_uw        =  2.90706e+00


Total analysis time (seconds) = 1.66387

Total elapsed time (seconds) = 1.856 

Total DRAM available = 16384.000 MB.
DRAM currently available =  117.047 MB.
Maximum ngspice program size =   26.781 MB.
Current ngspice program size =   26.781 MB.

