
Note: Compatibility modes selected: hs a


Circuit: SKY130 library cell oai21_1 A1_to_Y__A2=0,B1=1

option SCALE: Scale is set to 1e-06 for instance and model parameters
Doing analysis at TEMP = -13.448647 and TNOM = 27.000000

Using KLU as Direct Linear Solver
 Reference value :  3.09225e-08
 Reference value :  1.35042e-07
 Reference value :  2.41515e-07
No. of Data Rows : 68030

  Measurements for Transient Analysis

tphl                =  1.42972e-09 targ=  3.02259e-08 trig=  2.87962e-08
tplh                =  3.73197e-09 targ=  1.12121e-07 trig=  1.08389e-07
i_vdd_avg           =  -9.99545e-07 from=  1.00000e-08 to=  3.30002e-07
power_avg_uw        =  1.78418e+00


Total analysis time (seconds) = 0.830761

Total elapsed time (seconds) = 0.994 

Total DRAM available = 16384.000 MB.
DRAM currently available =  142.609 MB.
Maximum ngspice program size =   25.250 MB.
Current ngspice program size =   25.250 MB.

