
Note: Compatibility modes selected: hs a


Circuit: SKY130 library cell aoi21_4 A1_to_Y__A2=1,B1=0

option SCALE: Scale is set to 1e-06 for instance and model parameters
Doing analysis at TEMP = 61.331883 and TNOM = 27.000000

Using KLU as Direct Linear Solver
 Reference value :  7.13640e-09
 Reference value :  3.70676e-08
 Reference value :  6.55426e-08
 Reference value :  9.41126e-08
 Reference value :  1.21198e-07
 Reference value :  1.49058e-07
 Reference value :  1.76548e-07
 Reference value :  2.03543e-07
 Reference value :  2.31848e-07
 Reference value :  2.59713e-07
 Reference value :  2.86818e-07
 Reference value :  3.14243e-07
No. of Data Rows : 68032

  Measurements for Transient Analysis

tphl                =  -1.66256e-11 targ=  2.90059e-08 trig=  2.90225e-08
tplh                =  1.20593e-09 targ=  1.10274e-07 trig=  1.09068e-07
i_vdd_avg           =  -1.23862e-06 from=  1.00000e-08 to=  3.30003e-07
power_avg_uw        =  2.34061e+00


Total analysis time (seconds) = 3.08271

Total elapsed time (seconds) = 3.266 

Total DRAM available = 16384.000 MB.
DRAM currently available =   99.500 MB.
Maximum ngspice program size =   26.688 MB.
Current ngspice program size =   26.688 MB.

