
Note: Compatibility modes selected: hs a


Circuit: SKY130 library cell aoi21_4 A1_to_Y__A2=1,B1=0

option SCALE: Scale is set to 1e-06 for instance and model parameters
Doing analysis at TEMP = 4.838284 and TNOM = 27.000000

Using KLU as Direct Linear Solver
 Reference value :  9.12640e-09
 Reference value :  3.56998e-08
 Reference value :  6.38448e-08
 Reference value :  9.19248e-08
 Reference value :  1.21227e-07
 Reference value :  1.49907e-07
 Reference value :  1.77832e-07
 Reference value :  2.05130e-07
 Reference value :  2.33290e-07
 Reference value :  2.61345e-07
 Reference value :  2.89297e-07
 Reference value :  3.17847e-07
No. of Data Rows : 68030

  Measurements for Transient Analysis

tphl                =  -1.46052e-11 targ=  2.63040e-08 trig=  2.63186e-08
tplh                =  6.67137e-10 targ=  1.01623e-07 trig=  1.00956e-07
i_vdd_avg           =  -4.26765e-07 from=  1.00000e-08 to=  3.30002e-07
power_avg_uw        =  8.12462e-01


Total analysis time (seconds) = 3.08842

Total elapsed time (seconds) = 3.265 

Total DRAM available = 16384.000 MB.
DRAM currently available =  123.516 MB.
Maximum ngspice program size =   25.766 MB.
Current ngspice program size =   25.766 MB.

