
Note: Compatibility modes selected: hs a


Circuit: SKY130 library cell inv_4 A_to_Y

option SCALE: Scale is set to 1e-06 for instance and model parameters
Doing analysis at TEMP = 1.534292 and TNOM = 27.000000

Using KLU as Direct Linear Solver
 Reference value :  4.06458e-08
 Reference value :  1.34839e-07
 Reference value :  2.28751e-07
 Reference value :  3.21214e-07
No. of Data Rows : 68034

  Measurements for Transient Analysis

tphl                =  8.45241e-10 targ=  2.69844e-08 trig=  2.61391e-08
tplh                =  1.65508e-09 targ=  1.02073e-07 trig=  1.00417e-07
i_vdd_avg           =  -2.52875e-06 from=  1.00000e-08 to=  3.30004e-07
power_avg_uw        =  4.88667e+00


Total analysis time (seconds) = 0.905828

Total elapsed time (seconds) = 1.051 

Total DRAM available = 16384.000 MB.
DRAM currently available =   91.594 MB.
Maximum ngspice program size =   25.859 MB.
Current ngspice program size =   25.859 MB.

