
Note: Compatibility modes selected: hs a


Circuit: SKY130 library cell aoi21_1 A1_to_Y__A2=1,B1=0

option SCALE: Scale is set to 1e-06 for instance and model parameters
Doing analysis at TEMP = -1.738327 and TNOM = 27.000000

Using KLU as Direct Linear Solver
 Reference value :  3.37205e-08
 Reference value :  1.30284e-07
 Reference value :  2.21961e-07
 Reference value :  3.18434e-07
No. of Data Rows : 68034

  Measurements for Transient Analysis

tphl                =  -1.31665e-10 targ=  2.73274e-08 trig=  2.74590e-08
tplh                =  1.26757e-09 targ=  1.05645e-07 trig=  1.04377e-07
i_vdd_avg           =  -4.48762e-07 from=  1.00000e-08 to=  3.30004e-07
power_avg_uw        =  8.58163e-01


Total analysis time (seconds) = 0.908993

Total elapsed time (seconds) = 1.073 

Total DRAM available = 16384.000 MB.
DRAM currently available =  122.281 MB.
Maximum ngspice program size =   24.547 MB.
Current ngspice program size =   24.547 MB.

