
Note: Compatibility modes selected: hs a


Circuit: SKY130 library cell xor2_4 A_to_X__B=0

option SCALE: Scale is set to 1e-06 for instance and model parameters
Doing analysis at TEMP = 120.076940 and TNOM = 27.000000

Using KLU as Direct Linear Solver
 Reference value :  6.64640e-09
 Reference value :  2.42175e-08
 Reference value :  4.07224e-08
 Reference value :  5.87674e-08
 Reference value :  7.64024e-08
 Reference value :  9.36324e-08
 Reference value :  1.10347e-07
 Reference value :  1.27672e-07
 Reference value :  1.44872e-07
 Reference value :  1.62867e-07
 Reference value :  1.80072e-07
 Reference value :  1.96337e-07
 Reference value :  2.13312e-07
 Reference value :  2.30657e-07
 Reference value :  2.48837e-07
 Reference value :  2.65417e-07
 Reference value :  2.82382e-07
 Reference value :  2.99307e-07
 Reference value :  3.17067e-07
 Reference value :  3.34247e-07
No. of Data Rows : 68032

  Measurements for Transient Analysis

tplh                =  -2.52150e-10 targ=  2.80878e-08 trig=  2.83399e-08
tphl                =  8.63312e-10 targ=  1.07883e-07 trig=  1.07020e-07
i_vdd_avg           =  -3.58456e-06 from=  1.00000e-08 to=  3.30002e-07
power_avg_uw        =  6.49942e+00


Total analysis time (seconds) = 5.01469

Total elapsed time (seconds) = 5.176 

Total DRAM available = 16384.000 MB.
DRAM currently available =  155.625 MB.
Maximum ngspice program size =   26.688 MB.
Current ngspice program size =   26.688 MB.

