
Note: Compatibility modes selected: hs a


Circuit: SKY130 library cell oai21_4 A1_to_Y__A2=0,B1=1

option SCALE: Scale is set to 1e-06 for instance and model parameters
Doing analysis at TEMP = 7.691676 and TNOM = 27.000000

Using KLU as Direct Linear Solver
 Reference value :  8.09640e-09
 Reference value :  3.60658e-08
 Reference value :  6.55708e-08
 Reference value :  9.38308e-08
 Reference value :  1.20719e-07
 Reference value :  1.48259e-07
 Reference value :  1.75189e-07
 Reference value :  2.03261e-07
 Reference value :  2.30901e-07
 Reference value :  2.58186e-07
 Reference value :  2.86644e-07
 Reference value :  3.14969e-07
No. of Data Rows : 68034

  Measurements for Transient Analysis

tphl                =  7.19998e-10 targ=  2.99317e-08 trig=  2.92117e-08
tplh                =  2.62834e-09 targ=  1.12263e-07 trig=  1.09635e-07
i_vdd_avg           =  -2.30290e-06 from=  1.00000e-08 to=  3.30004e-07
power_avg_uw        =  4.26898e+00


Total analysis time (seconds) = 3.17791

Total elapsed time (seconds) = 3.348 

Total DRAM available = 16384.000 MB.
DRAM currently available =  215.891 MB.
Maximum ngspice program size =   25.516 MB.
Current ngspice program size =   25.516 MB.

