
Note: Compatibility modes selected: hs a


Circuit: SKY130 library cell nor2_1 A_to_Y__B=0

option SCALE: Scale is set to 1e-06 for instance and model parameters
Doing analysis at TEMP = -31.810775 and TNOM = 27.000000

Using KLU as Direct Linear Solver
 Reference value :  5.82171e-08
 Reference value :  2.09067e-07
No. of Data Rows : 68032

  Measurements for Transient Analysis

tphl                =  7.09180e-11 targ=  2.97207e-08 trig=  2.96498e-08
tplh                =  2.32024e-09 targ=  1.13270e-07 trig=  1.10949e-07
i_vdd_avg           =  -4.39913e-07 from=  1.00000e-08 to=  3.30002e-07
power_avg_uw        =  8.64249e-01


Total analysis time (seconds) = 0.565479

Total elapsed time (seconds) = 0.712 

Total DRAM available = 16384.000 MB.
DRAM currently available =  131.141 MB.
Maximum ngspice program size =   26.469 MB.
Current ngspice program size =   26.469 MB.

