
Note: Compatibility modes selected: hs a


Circuit: SKY130 library cell aoi21_1 A1_to_Y__A2=1,B1=0

option SCALE: Scale is set to 1e-06 for instance and model parameters
Doing analysis at TEMP = 122.144910 and TNOM = 27.000000

Using KLU as Direct Linear Solver
 Reference value :  3.35994e-08
 Reference value :  1.27426e-07
 Reference value :  2.28899e-07
 Reference value :  3.26801e-07
No. of Data Rows : 68030

  Measurements for Transient Analysis

tphl                =  6.05168e-10 targ=  2.69736e-08 trig=  2.63684e-08
tplh                =  1.33966e-09 targ=  1.02445e-07 trig=  1.01105e-07
i_vdd_avg           =  -8.89539e-07 from=  1.00000e-08 to=  3.30001e-07
power_avg_uw        =  1.58845e+00


Total analysis time (seconds) = 0.896281

Total elapsed time (seconds) = 1.057 

Total DRAM available = 16384.000 MB.
DRAM currently available =  147.109 MB.
Maximum ngspice program size =   25.828 MB.
Current ngspice program size =   25.828 MB.

