
Note: Compatibility modes selected: hs a


Circuit: SKY130 library cell oai21_1 A1_to_Y__A2=0,B1=1

option SCALE: Scale is set to 1e-06 for instance and model parameters
Doing analysis at TEMP = 32.884532 and TNOM = 27.000000

Using KLU as Direct Linear Solver
 Reference value :  2.76975e-08
 Reference value :  1.27087e-07
 Reference value :  2.28547e-07
 Reference value :  3.25807e-07
No. of Data Rows : 68032

  Measurements for Transient Analysis

tphl                =  1.55104e-09 targ=  2.99335e-08 trig=  2.83824e-08
tplh                =  3.02410e-09 targ=  1.10171e-07 trig=  1.07147e-07
i_vdd_avg           =  -5.53826e-07 from=  1.00000e-08 to=  3.30002e-07
power_avg_uw        =  1.00064e+00


Total analysis time (seconds) = 0.870114

Total elapsed time (seconds) = 1.038 

Total DRAM available = 16384.000 MB.
DRAM currently available =  120.938 MB.
Maximum ngspice program size =   25.547 MB.
Current ngspice program size =   25.547 MB.

