Note: Starting dynamic gmin stepping
Note: Dynamic gmin stepping completed

Note: Compatibility modes selected: hs a


Circuit: SKY130 library cell mux2_1 A0_to_X__A1=0,S=0

option SCALE: Scale is set to 1e-06 for instance and model parameters
Doing analysis at TEMP = 26.186927 and TNOM = 27.000000

Using KLU as Direct Linear Solver
 Reference value :  1.59914e-08
 Reference value :  6.83041e-08
 Reference value :  1.18696e-07
 Reference value :  1.70381e-07
 Reference value :  2.24239e-07
 Reference value :  2.78776e-07
 Reference value :  3.32016e-07
No. of Data Rows : 68030

  Measurements for Transient Analysis

tplh                =  5.60752e-10 targ=  2.74415e-08 trig=  2.68808e-08
tphl                =  1.21025e-09 targ=  1.03853e-07 trig=  1.02642e-07
i_vdd_avg           =  -1.68218e-06 from=  1.00000e-08 to=  3.30001e-07
power_avg_uw        =  3.06680e+00


Total analysis time (seconds) = 1.64103

Total elapsed time (seconds) = 1.811 

Total DRAM available = 16384.000 MB.
DRAM currently available =  117.047 MB.
Maximum ngspice program size =   27.094 MB.
Current ngspice program size =   27.094 MB.

