
Note: Compatibility modes selected: hs a


Circuit: SKY130 library cell xor2_4 A_to_X__B=0

option SCALE: Scale is set to 1e-06 for instance and model parameters
Doing analysis at TEMP = -38.894576 and TNOM = 27.000000

Using KLU as Direct Linear Solver
 Reference value :  3.89640e-09
 Reference value :  1.99414e-08
 Reference value :  3.56388e-08
 Reference value :  5.24488e-08
 Reference value :  7.02438e-08
 Reference value :  8.63738e-08
 Reference value :  1.03719e-07
 Reference value :  1.21320e-07
 Reference value :  1.38640e-07
 Reference value :  1.55340e-07
 Reference value :  1.73115e-07
 Reference value :  1.90188e-07
 Reference value :  2.07784e-07
 Reference value :  2.24529e-07
 Reference value :  2.42279e-07
 Reference value :  2.59344e-07
 Reference value :  2.76750e-07
 Reference value :  2.93880e-07
 Reference value :  3.10965e-07
 Reference value :  3.29195e-07
No. of Data Rows : 68030

  Measurements for Transient Analysis

tplh                =  1.87692e-10 targ=  2.91458e-08 trig=  2.89581e-08
tphl                =  1.85080e-09 targ=  1.10725e-07 trig=  1.08874e-07
i_vdd_avg           =  -2.92457e-07 from=  1.00000e-08 to=  3.30000e-07
power_avg_uw        =  4.85805e-01


Total analysis time (seconds) = 5.06371

Total elapsed time (seconds) = 5.244 

Total DRAM available = 16384.000 MB.
DRAM currently available =  105.984 MB.
Maximum ngspice program size =   27.312 MB.
Current ngspice program size =   27.312 MB.

