
Note: Compatibility modes selected: hs a


Circuit: SKY130 library cell oai21_4 A1_to_Y__A2=0,B1=1

option SCALE: Scale is set to 1e-06 for instance and model parameters
Doing analysis at TEMP = -35.710841 and TNOM = 27.000000

Using KLU as Direct Linear Solver
 Reference value :  8.76140e-09
 Reference value :  3.68295e-08
 Reference value :  6.80245e-08
 Reference value :  9.59595e-08
 Reference value :  1.22732e-07
 Reference value :  1.51047e-07
 Reference value :  1.80102e-07
 Reference value :  2.06490e-07
 Reference value :  2.34810e-07
 Reference value :  2.62152e-07
 Reference value :  2.88952e-07
 Reference value :  3.17357e-07
No. of Data Rows : 68030

  Measurements for Transient Analysis

tphl                =  8.03920e-10 targ=  2.59699e-08 trig=  2.51660e-08
tplh                =  1.86603e-09 targ=  9.93641e-08 trig=  9.74981e-08
i_vdd_avg           =  -2.19556e-06 from=  1.00000e-08 to=  3.30002e-07
power_avg_uw        =  3.90534e+00


Total analysis time (seconds) = 3.1337

Total elapsed time (seconds) = 3.303 

Total DRAM available = 16384.000 MB.
DRAM currently available =  154.078 MB.
Maximum ngspice program size =   27.266 MB.
Current ngspice program size =   27.266 MB.

