
Note: Compatibility modes selected: hs a


Circuit: SKY130 library cell nand3_1 A_to_Y__B=1,C=1

option SCALE: Scale is set to 1e-06 for instance and model parameters
Doing analysis at TEMP = 107.551170 and TNOM = 27.000000

Using KLU as Direct Linear Solver
 Reference value :  2.89925e-08
 Reference value :  1.32334e-07
 Reference value :  2.30816e-07
 Reference value :  3.22499e-07
No. of Data Rows : 68034

  Measurements for Transient Analysis

tphl                =  3.08357e-09 targ=  3.09703e-08 trig=  2.78867e-08
tplh                =  3.04777e-09 targ=  1.08708e-07 trig=  1.05660e-07
i_vdd_avg           =  -1.91889e-06 from=  1.00000e-08 to=  3.30004e-07
power_avg_uw        =  3.78012e+00


Total analysis time (seconds) = 0.922627

Total elapsed time (seconds) = 1.089 

Total DRAM available = 16384.000 MB.
DRAM currently available =  133.422 MB.
Maximum ngspice program size =   27.578 MB.
Current ngspice program size =   27.578 MB.

