
Note: Compatibility modes selected: hs a


Circuit: SKY130 library cell aoi21_1 A1_to_Y__A2=1,B1=0

option SCALE: Scale is set to 1e-06 for instance and model parameters
Doing analysis at TEMP = 109.368990 and TNOM = 27.000000

Using KLU as Direct Linear Solver
 Reference value :  2.81575e-08
 Reference value :  1.28624e-07
 Reference value :  2.32118e-07
 Reference value :  3.24154e-07
No. of Data Rows : 68032

  Measurements for Transient Analysis

tphl                =  9.24038e-10 targ=  3.06119e-08 trig=  2.96878e-08
tplh                =  2.15843e-09 targ=  1.13222e-07 trig=  1.11064e-07
i_vdd_avg           =  -6.70962e-07 from=  1.00000e-08 to=  3.30004e-07
power_avg_uw        =  1.20126e+00


Total analysis time (seconds) = 0.889032

Total elapsed time (seconds) = 1.057 

Total DRAM available = 16384.000 MB.
DRAM currently available =  147.109 MB.
Maximum ngspice program size =   26.109 MB.
Current ngspice program size =   26.109 MB.

