
Note: Compatibility modes selected: hs a


Circuit: SKY130 library cell inv_1 A_to_Y

option SCALE: Scale is set to 1e-06 for instance and model parameters
Doing analysis at TEMP = 83.694389 and TNOM = 27.000000

Using KLU as Direct Linear Solver
 Reference value :  1.17379e-07
No. of Data Rows : 68034

  Measurements for Transient Analysis

tphl                =  7.42718e-10 targ=  2.64768e-08 trig=  2.57341e-08
tplh                =  1.47709e-09 targ=  1.00679e-07 trig=  9.92022e-08
i_vdd_avg           =  -1.96522e-06 from=  1.00000e-08 to=  3.30004e-07
power_avg_uw        =  3.77705e+00


Total analysis time (seconds) = 0.307947

Total elapsed time (seconds) = 0.455 

Total DRAM available = 16384.000 MB.
DRAM currently available =  203.391 MB.
Maximum ngspice program size =   27.125 MB.
Current ngspice program size =   27.125 MB.

