
Note: Compatibility modes selected: hs a


Circuit: SKY130 library cell nand2_4 A_to_Y__B=1

option SCALE: Scale is set to 1e-06 for instance and model parameters
Doing analysis at TEMP = 44.925172 and TNOM = 27.000000

Using KLU as Direct Linear Solver
 Reference value :  1.42264e-08
 Reference value :  5.78663e-08
 Reference value :  1.05456e-07
 Reference value :  1.53730e-07
 Reference value :  1.99376e-07
 Reference value :  2.46706e-07
 Reference value :  2.91670e-07
 Reference value :  3.37365e-07
No. of Data Rows : 68032

  Measurements for Transient Analysis

tphl                =  4.75305e-10 targ=  2.84747e-08 trig=  2.79994e-08
tplh                =  1.46704e-09 targ=  1.07465e-07 trig=  1.05998e-07
i_vdd_avg           =  -9.72078e-07 from=  1.00000e-08 to=  3.30000e-07
power_avg_uw        =  1.65521e+00


Total analysis time (seconds) = 1.86581

Total elapsed time (seconds) = 2.032 

Total DRAM available = 16384.000 MB.
DRAM currently available =  128.859 MB.
Maximum ngspice program size =   26.734 MB.
Current ngspice program size =   26.734 MB.

