
Note: Compatibility modes selected: hs a


Circuit: SKY130 library cell inv_4 A_to_Y

option SCALE: Scale is set to 1e-06 for instance and model parameters
Doing analysis at TEMP = 31.318699 and TNOM = 27.000000

Using KLU as Direct Linear Solver
 Reference value :  3.94218e-08
 Reference value :  1.26961e-07
 Reference value :  2.23457e-07
 Reference value :  3.16756e-07
No. of Data Rows : 68032

  Measurements for Transient Analysis

tphl                =  2.36039e-10 targ=  2.59182e-08 trig=  2.56821e-08
tplh                =  9.38801e-10 targ=  9.99852e-08 trig=  9.90464e-08
i_vdd_avg           =  -2.78312e-06 from=  1.00000e-08 to=  3.30001e-07
power_avg_uw        =  5.25800e+00


Total analysis time (seconds) = 0.928982

Total elapsed time (seconds) = 1.072 

Total DRAM available = 16384.000 MB.
DRAM currently available =  120.656 MB.
Maximum ngspice program size =   23.828 MB.
Current ngspice program size =   23.828 MB.

