
Note: Compatibility modes selected: hs a


Circuit: SKY130 library cell nor2_4 A_to_Y__B=0

option SCALE: Scale is set to 1e-06 for instance and model parameters
Doing analysis at TEMP = -38.119451 and TNOM = 27.000000

Using KLU as Direct Linear Solver
 Reference value :  1.70314e-08
 Reference value :  6.72174e-08
 Reference value :  1.10852e-07
 Reference value :  1.56732e-07
 Reference value :  1.97692e-07
 Reference value :  2.39787e-07
 Reference value :  2.83567e-07
 Reference value :  3.26247e-07
No. of Data Rows : 68032

  Measurements for Transient Analysis

tphl                =  7.82834e-10 targ=  2.82678e-08 trig=  2.74850e-08
tplh                =  2.23248e-09 targ=  1.06687e-07 trig=  1.04455e-07
i_vdd_avg           =  -1.02922e-06 from=  1.00000e-08 to=  3.30002e-07
power_avg_uw        =  1.90134e+00


Total analysis time (seconds) = 1.95527

Total elapsed time (seconds) = 2.108 

Total DRAM available = 16384.000 MB.
DRAM currently available =  167.438 MB.
Maximum ngspice program size =   27.000 MB.
Current ngspice program size =   27.000 MB.

