
Note: Compatibility modes selected: hs a


Circuit: SKY130 library cell oai21_1 A1_to_Y__A2=0,B1=1

option SCALE: Scale is set to 1e-06 for instance and model parameters
Doing analysis at TEMP = 61.829034 and TNOM = 27.000000

Using KLU as Direct Linear Solver
 Reference value :  3.27239e-08
 Reference value :  1.35675e-07
 Reference value :  2.29299e-07
 Reference value :  3.27680e-07
No. of Data Rows : 68030

  Measurements for Transient Analysis

tphl                =  8.81043e-10 targ=  2.60992e-08 trig=  2.52182e-08
tplh                =  1.96153e-09 targ=  9.96161e-08 trig=  9.76545e-08
i_vdd_avg           =  -1.36240e-06 from=  1.00000e-08 to=  3.30000e-07
power_avg_uw        =  2.28081e+00


Total analysis time (seconds) = 0.877824

Total elapsed time (seconds) = 1.045 

Total DRAM available = 16384.000 MB.
DRAM currently available =  101.594 MB.
Maximum ngspice program size =   26.391 MB.
Current ngspice program size =   26.391 MB.

