
Note: Compatibility modes selected: hs a


Circuit: SKY130 library cell nand3_1 A_to_Y__B=1,C=1

option SCALE: Scale is set to 1e-06 for instance and model parameters
Doing analysis at TEMP = 92.583322 and TNOM = 27.000000

Using KLU as Direct Linear Solver
 Reference value :  3.08420e-08
 Reference value :  1.26851e-07
 Reference value :  2.26317e-07
 Reference value :  3.24956e-07
No. of Data Rows : 68032

  Measurements for Transient Analysis

tphl                =  8.84838e-10 targ=  2.51496e-08 trig=  2.42647e-08
tplh                =  8.78232e-10 targ=  9.56724e-08 trig=  9.47942e-08
i_vdd_avg           =  -1.74692e-06 from=  1.00000e-08 to=  3.30001e-07
power_avg_uw        =  3.10522e+00


Total analysis time (seconds) = 0.904271

Total elapsed time (seconds) = 1.072 

Total DRAM available = 16384.000 MB.
DRAM currently available =  151.500 MB.
Maximum ngspice program size =   25.969 MB.
Current ngspice program size =   25.969 MB.

