
Note: Compatibility modes selected: hs a


Circuit: SKY130 library cell inv_1 A_to_Y

option SCALE: Scale is set to 1e-06 for instance and model parameters
Doing analysis at TEMP = 58.558988 and TNOM = 27.000000

Using KLU as Direct Linear Solver
 Reference value :  1.02829e-07
No. of Data Rows : 68032

  Measurements for Transient Analysis

tphl                =  2.57257e-09 targ=  3.05756e-08 trig=  2.80031e-08
tplh                =  4.03870e-09 targ=  1.10048e-07 trig=  1.06009e-07
i_vdd_avg           =  -2.01867e-06 from=  1.00000e-08 to=  3.30005e-07
power_avg_uw        =  3.61506e+00


Total analysis time (seconds) = 0.345851

Total elapsed time (seconds) = 0.502 

Total DRAM available = 16384.000 MB.
DRAM currently available =  132.047 MB.
Maximum ngspice program size =   25.688 MB.
Current ngspice program size =   25.688 MB.

