
Note: Compatibility modes selected: hs a


Circuit: SKY130 library cell inv_1 A_to_Y

option SCALE: Scale is set to 1e-06 for instance and model parameters
Doing analysis at TEMP = 41.706845 and TNOM = 27.000000

Using KLU as Direct Linear Solver
 Reference value :  1.20111e-07
No. of Data Rows : 68030

  Measurements for Transient Analysis

tphl                =  1.01399e-09 targ=  3.09525e-08 trig=  2.99385e-08
tplh                =  3.46289e-09 targ=  1.15278e-07 trig=  1.11815e-07
i_vdd_avg           =  -2.46014e-06 from=  1.00000e-08 to=  3.30001e-07
power_avg_uw        =  4.51530e+00


Total analysis time (seconds) = 0.317891

Total elapsed time (seconds) = 0.483 

Total DRAM available = 16384.000 MB.
DRAM currently available =  132.047 MB.
Maximum ngspice program size =   26.672 MB.
Current ngspice program size =   26.672 MB.

