
Note: Compatibility modes selected: hs a


Circuit: SKY130 library cell oai21_1 A1_to_Y__A2=0,B1=1

option SCALE: Scale is set to 1e-06 for instance and model parameters
Doing analysis at TEMP = 92.745168 and TNOM = 27.000000

Using KLU as Direct Linear Solver
 Reference value :  3.42945e-08
 Reference value :  1.27791e-07
 Reference value :  2.27784e-07
 Reference value :  3.31626e-07
No. of Data Rows : 68030

  Measurements for Transient Analysis

tphl                =  1.26458e-09 targ=  2.62856e-08 trig=  2.50210e-08
tplh                =  2.61382e-09 targ=  9.96768e-08 trig=  9.70630e-08
i_vdd_avg           =  -2.45852e-06 from=  1.00000e-08 to=  3.30001e-07
power_avg_uw        =  4.75390e+00


Total analysis time (seconds) = 0.872918

Total elapsed time (seconds) = 1.032 

Total DRAM available = 16384.000 MB.
DRAM currently available =  142.609 MB.
Maximum ngspice program size =   25.703 MB.
Current ngspice program size =   25.703 MB.

