
Note: Compatibility modes selected: hs a


Circuit: SKY130 library cell inv_1 A_to_Y

option SCALE: Scale is set to 1e-06 for instance and model parameters
Doing analysis at TEMP = -9.609249 and TNOM = 27.000000

Using KLU as Direct Linear Solver
 Reference value :  8.60417e-08
No. of Data Rows : 68032

  Measurements for Transient Analysis

tphl                =  2.07918e-10 targ=  2.43050e-08 trig=  2.40971e-08
tplh                =  5.08512e-10 targ=  9.47998e-08 trig=  9.42913e-08
i_vdd_avg           =  -5.75498e-07 from=  1.00000e-08 to=  3.30001e-07
power_avg_uw        =  9.68837e-01


Total analysis time (seconds) = 0.335193

Total elapsed time (seconds) = 0.515 

Total DRAM available = 16384.000 MB.
DRAM currently available =   75.031 MB.
Maximum ngspice program size =   24.375 MB.
Current ngspice program size =   24.375 MB.

