
Note: Compatibility modes selected: hs a


Circuit: SKY130 library cell nor2_1 A_to_Y__B=0

option SCALE: Scale is set to 1e-06 for instance and model parameters
Doing analysis at TEMP = 107.055280 and TNOM = 27.000000

Using KLU as Direct Linear Solver
 Reference value :  6.30022e-08
 Reference value :  2.18947e-07
No. of Data Rows : 68032

  Measurements for Transient Analysis

tphl                =  4.47115e-10 targ=  2.61069e-08 trig=  2.56598e-08
tplh                =  1.23807e-09 targ=  1.00218e-07 trig=  9.89795e-08
i_vdd_avg           =  -7.67096e-07 from=  1.00000e-08 to=  3.30002e-07
power_avg_uw        =  1.32364e+00


Total analysis time (seconds) = 0.549839

Total elapsed time (seconds) = 0.706 

Total DRAM available = 16384.000 MB.
DRAM currently available =  183.094 MB.
Maximum ngspice program size =   26.484 MB.
Current ngspice program size =   26.484 MB.

