
Note: Compatibility modes selected: hs a


Circuit: SKY130 library cell nand3_1 A_to_Y__B=1,C=1

option SCALE: Scale is set to 1e-06 for instance and model parameters
Doing analysis at TEMP = -32.549008 and TNOM = 27.000000

Using KLU as Direct Linear Solver
 Reference value :  2.79375e-08
 Reference value :  1.25437e-07
 Reference value :  2.21455e-07
 Reference value :  3.17177e-07
No. of Data Rows : 68030

  Measurements for Transient Analysis

tphl                =  -2.36639e-10 targ=  2.74870e-08 trig=  2.77236e-08
tplh                =  1.11529e-09 targ=  1.06286e-07 trig=  1.05171e-07
i_vdd_avg           =  -1.28371e-07 from=  1.00000e-08 to=  3.30002e-07
power_avg_uw        =  2.17557e-01


Total analysis time (seconds) = 0.973022

Total elapsed time (seconds) = 1.145 

Total DRAM available = 16384.000 MB.
DRAM currently available =  164.547 MB.
Maximum ngspice program size =   25.781 MB.
Current ngspice program size =   25.781 MB.

