
Note: Compatibility modes selected: hs a


Circuit: SKY130 library cell aoi21_4 A1_to_Y__A2=1,B1=0

option SCALE: Scale is set to 1e-06 for instance and model parameters
Doing analysis at TEMP = 80.196384 and TNOM = 27.000000

Using KLU as Direct Linear Solver
 Reference value :  7.25140e-09
 Reference value :  3.59884e-08
 Reference value :  6.38384e-08
 Reference value :  9.00334e-08
 Reference value :  1.18344e-07
 Reference value :  1.45974e-07
 Reference value :  1.74039e-07
 Reference value :  2.02663e-07
 Reference value :  2.28558e-07
 Reference value :  2.54958e-07
 Reference value :  2.83789e-07
 Reference value :  3.09954e-07
 Reference value :  3.38264e-07
No. of Data Rows : 68032

  Measurements for Transient Analysis

tphl                =  2.33680e-10 targ=  2.77466e-08 trig=  2.75130e-08
tplh                =  1.40186e-09 targ=  1.05941e-07 trig=  1.04539e-07
i_vdd_avg           =  -3.93484e-06 from=  1.00000e-08 to=  3.30004e-07
power_avg_uw        =  7.68328e+00


Total analysis time (seconds) = 3.14705

Total elapsed time (seconds) = 3.325 

Total DRAM available = 16384.000 MB.
DRAM currently available =  142.641 MB.
Maximum ngspice program size =   27.844 MB.
Current ngspice program size =   27.844 MB.

