
Note: Compatibility modes selected: hs a


Circuit: SKY130 library cell inv_4 A_to_Y

option SCALE: Scale is set to 1e-06 for instance and model parameters
Doing analysis at TEMP = 21.825357 and TNOM = 27.000000

Using KLU as Direct Linear Solver
 Reference value :  2.96625e-08
 Reference value :  1.19834e-07
 Reference value :  2.11071e-07
 Reference value :  2.99184e-07
No. of Data Rows : 68034

  Measurements for Transient Analysis

tphl                =  1.02591e-09 targ=  2.90924e-08 trig=  2.80665e-08
tplh                =  2.14571e-09 targ=  1.08345e-07 trig=  1.06200e-07
i_vdd_avg           =  -8.12274e-07 from=  1.00000e-08 to=  3.30004e-07
power_avg_uw        =  1.37367e+00


Total analysis time (seconds) = 0.958283

Total elapsed time (seconds) = 1.119 

Total DRAM available = 16384.000 MB.
DRAM currently available =  120.656 MB.
Maximum ngspice program size =   26.297 MB.
Current ngspice program size =   26.297 MB.

