
Note: Compatibility modes selected: hs a


Circuit: SKY130 library cell inv_1 A_to_Y

option SCALE: Scale is set to 1e-06 for instance and model parameters
Doing analysis at TEMP = 19.473188 and TNOM = 27.000000

Using KLU as Direct Linear Solver
 Reference value :  1.03279e-07
No. of Data Rows : 68030

  Measurements for Transient Analysis

tphl                =  7.49782e-10 targ=  2.80258e-08 trig=  2.72760e-08
tplh                =  1.99267e-09 targ=  1.05821e-07 trig=  1.03828e-07
i_vdd_avg           =  -1.08616e-06 from=  1.00000e-08 to=  3.30001e-07
power_avg_uw        =  2.12449e+00


Total analysis time (seconds) = 0.322301

Total elapsed time (seconds) = 0.474 

Total DRAM available = 16384.000 MB.
DRAM currently available =  199.781 MB.
Maximum ngspice program size =   25.438 MB.
Current ngspice program size =   25.438 MB.

