
Note: Compatibility modes selected: hs a


Circuit: SKY130 library cell nand2_4 A_to_Y__B=1

option SCALE: Scale is set to 1e-06 for instance and model parameters
Doing analysis at TEMP = -18.672713 and TNOM = 27.000000

Using KLU as Direct Linear Solver
 Reference value :  1.84314e-08
 Reference value :  6.80028e-08
 Reference value :  1.14923e-07
 Reference value :  1.62358e-07
 Reference value :  2.10608e-07
 Reference value :  2.57728e-07
 Reference value :  3.04888e-07
No. of Data Rows : 68032

  Measurements for Transient Analysis

tphl                =  9.35503e-10 targ=  3.01731e-08 trig=  2.92376e-08
tplh                =  2.74915e-09 targ=  1.12462e-07 trig=  1.09713e-07
i_vdd_avg           =  -2.35976e-06 from=  1.00000e-08 to=  3.30003e-07
power_avg_uw        =  4.23810e+00


Total analysis time (seconds) = 1.80567

Total elapsed time (seconds) = 1.955 

Total DRAM available = 16384.000 MB.
DRAM currently available =  137.125 MB.
Maximum ngspice program size =   25.578 MB.
Current ngspice program size =   25.578 MB.

