
Note: Compatibility modes selected: hs a


Circuit: SKY130 library cell nand3_4 A_to_Y__B=1,C=1

option SCALE: Scale is set to 1e-06 for instance and model parameters
Doing analysis at TEMP = 72.049381 and TNOM = 27.000000

Using KLU as Direct Linear Solver
 Reference value :  5.74640e-09
 Reference value :  3.33067e-08
 Reference value :  6.00117e-08
 Reference value :  8.70267e-08
 Reference value :  1.15576e-07
 Reference value :  1.43141e-07
 Reference value :  1.71511e-07
 Reference value :  1.99487e-07
 Reference value :  2.27152e-07
 Reference value :  2.54582e-07
 Reference value :  2.82816e-07
 Reference value :  3.10906e-07
 Reference value :  3.38781e-07
No. of Data Rows : 68032

  Measurements for Transient Analysis

tphl                =  1.73114e-10 targ=  2.62502e-08 trig=  2.60771e-08
tplh                =  5.37674e-10 targ=  1.00769e-07 trig=  1.00231e-07
i_vdd_avg           =  -2.74526e-07 from=  1.00000e-08 to=  3.30001e-07
power_avg_uw        =  4.47702e-01


Total analysis time (seconds) = 3.09017

Total elapsed time (seconds) = 3.272 

Total DRAM available = 16384.000 MB.
DRAM currently available =  133.797 MB.
Maximum ngspice program size =   28.469 MB.
Current ngspice program size =   28.469 MB.

