
Note: Compatibility modes selected: hs a


Circuit: SKY130 library cell inv_4 A_to_Y

option SCALE: Scale is set to 1e-06 for instance and model parameters
Doing analysis at TEMP = 54.363639 and TNOM = 27.000000

Using KLU as Direct Linear Solver
 Reference value :  3.82937e-08
 Reference value :  1.33130e-07
 Reference value :  2.30684e-07
 Reference value :  3.21335e-07
No. of Data Rows : 68032

  Measurements for Transient Analysis

tphl                =  1.79008e-10 targ=  2.45321e-08 trig=  2.43531e-08
tplh                =  3.23753e-10 targ=  9.53830e-08 trig=  9.50593e-08
i_vdd_avg           =  -6.64303e-07 from=  1.00000e-08 to=  3.30005e-07
power_avg_uw        =  1.11538e+00


Total analysis time (seconds) = 0.909228

Total elapsed time (seconds) = 1.055 

Total DRAM available = 16384.000 MB.
DRAM currently available =  120.656 MB.
Maximum ngspice program size =   26.359 MB.
Current ngspice program size =   26.359 MB.

