
Note: Compatibility modes selected: hs a


Circuit: SKY130 library cell nand2_4 A_to_Y__B=1

option SCALE: Scale is set to 1e-06 for instance and model parameters
Doing analysis at TEMP = -35.176854 and TNOM = 27.000000

Using KLU as Direct Linear Solver
 Reference value :  1.72664e-08
 Reference value :  6.74244e-08
 Reference value :  1.11711e-07
 Reference value :  1.62071e-07
 Reference value :  2.09614e-07
 Reference value :  2.56709e-07
 Reference value :  3.03491e-07
No. of Data Rows : 68030

  Measurements for Transient Analysis

tphl                =  -1.23738e-10 targ=  2.54972e-08 trig=  2.56209e-08
tplh                =  4.98071e-10 targ=  9.93609e-08 trig=  9.88628e-08
i_vdd_avg           =  -5.88307e-07 from=  1.00000e-08 to=  3.30001e-07
power_avg_uw        =  1.10738e+00


Total analysis time (seconds) = 1.80725

Total elapsed time (seconds) = 1.967 

Total DRAM available = 16384.000 MB.
DRAM currently available =   98.281 MB.
Maximum ngspice program size =   26.359 MB.
Current ngspice program size =   26.359 MB.

