
Note: Compatibility modes selected: hs a


Circuit: SKY130 library cell nor2_4 A_to_Y__B=0

option SCALE: Scale is set to 1e-06 for instance and model parameters
Doing analysis at TEMP = -4.258058 and TNOM = 27.000000

Using KLU as Direct Linear Solver
 Reference value :  1.22514e-08
 Reference value :  5.47543e-08
 Reference value :  9.99793e-08
 Reference value :  1.42966e-07
 Reference value :  1.86658e-07
 Reference value :  2.30599e-07
 Reference value :  2.76411e-07
 Reference value :  3.21911e-07
No. of Data Rows : 68030

  Measurements for Transient Analysis

tphl                =  1.18824e-09 targ=  3.06841e-08 trig=  2.94959e-08
tplh                =  3.25278e-09 targ=  1.13740e-07 trig=  1.10488e-07
i_vdd_avg           =  -2.08135e-06 from=  1.00000e-08 to=  3.30001e-07
power_avg_uw        =  3.95348e+00


Total analysis time (seconds) = 1.95094

Total elapsed time (seconds) = 2.118 

Total DRAM available = 16384.000 MB.
DRAM currently available =  125.875 MB.
Maximum ngspice program size =   27.172 MB.
Current ngspice program size =   27.172 MB.

