
Note: Compatibility modes selected: hs a


Circuit: SKY130 library cell aoi21_4 A1_to_Y__A2=1,B1=0

option SCALE: Scale is set to 1e-06 for instance and model parameters
Doing analysis at TEMP = 45.985039 and TNOM = 27.000000

Using KLU as Direct Linear Solver
 Reference value :  6.31640e-09
 Reference value :  3.26625e-08
 Reference value :  6.01035e-08
 Reference value :  8.68535e-08
 Reference value :  1.15030e-07
 Reference value :  1.42165e-07
 Reference value :  1.69425e-07
 Reference value :  1.96509e-07
 Reference value :  2.25289e-07
 Reference value :  2.53004e-07
 Reference value :  2.80690e-07
 Reference value :  3.07965e-07
 Reference value :  3.35585e-07
No. of Data Rows : 68032

  Measurements for Transient Analysis

tphl                =  3.03995e-10 targ=  2.91670e-08 trig=  2.88630e-08
tplh                =  1.68787e-09 targ=  1.10277e-07 trig=  1.08589e-07
i_vdd_avg           =  -1.97143e-06 from=  1.00000e-08 to=  3.30005e-07
power_avg_uw        =  3.82596e+00


Total analysis time (seconds) = 3.14184

Total elapsed time (seconds) = 3.336 

Total DRAM available = 16384.000 MB.
DRAM currently available =  125.766 MB.
Maximum ngspice program size =   29.594 MB.
Current ngspice program size =   29.594 MB.

