
Note: Compatibility modes selected: hs a


Circuit: SKY130 library cell aoi21_4 A1_to_Y__A2=1,B1=0

option SCALE: Scale is set to 1e-06 for instance and model parameters
Doing analysis at TEMP = 7.094211 and TNOM = 27.000000

Using KLU as Direct Linear Solver
 Reference value :  7.32140e-09
 Reference value :  3.42981e-08
 Reference value :  6.24681e-08
 Reference value :  9.08581e-08
 Reference value :  1.19124e-07
 Reference value :  1.47974e-07
 Reference value :  1.75634e-07
 Reference value :  2.03023e-07
 Reference value :  2.29983e-07
 Reference value :  2.58788e-07
 Reference value :  2.87049e-07
 Reference value :  3.14644e-07
No. of Data Rows : 68032

  Measurements for Transient Analysis

tphl                =  4.42815e-11 targ=  2.70996e-08 trig=  2.70553e-08
tplh                =  9.31657e-10 targ=  1.04098e-07 trig=  1.03166e-07
i_vdd_avg           =  -2.45412e-07 from=  1.00000e-08 to=  3.30004e-07
power_avg_uw        =  4.19899e-01


Total analysis time (seconds) = 3.09245

Total elapsed time (seconds) = 3.267 

Total DRAM available = 16384.000 MB.
DRAM currently available =  115.594 MB.
Maximum ngspice program size =   24.766 MB.
Current ngspice program size =   24.766 MB.

