
Note: Compatibility modes selected: hs a


Circuit: SKY130 library cell nand3_1 A_to_Y__B=1,C=1

option SCALE: Scale is set to 1e-06 for instance and model parameters
Doing analysis at TEMP = -19.417831 and TNOM = 27.000000

Using KLU as Direct Linear Solver
 Reference value :  2.09014e-08
 Reference value :  1.13735e-07
 Reference value :  2.07536e-07
 Reference value :  3.10975e-07
No. of Data Rows : 68032

  Measurements for Transient Analysis

tphl                =  1.71196e-09 targ=  3.00989e-08 trig=  2.83870e-08
tplh                =  2.85766e-09 targ=  1.10019e-07 trig=  1.07161e-07
i_vdd_avg           =  -6.27172e-07 from=  1.00000e-08 to=  3.30000e-07
power_avg_uw        =  1.18014e+00


Total analysis time (seconds) = 0.907556

Total elapsed time (seconds) = 1.098 

Total DRAM available = 16384.000 MB.
DRAM currently available =  259.359 MB.
Maximum ngspice program size =   24.594 MB.
Current ngspice program size =   24.594 MB.

