Note: Starting dynamic gmin stepping
Note: Dynamic gmin stepping completed

Note: Compatibility modes selected: hs a


Circuit: SKY130 library cell mux2_4 A0_to_X__A1=0,S=0

option SCALE: Scale is set to 1e-06 for instance and model parameters
Doing analysis at TEMP = -21.761484 and TNOM = 27.000000

Using KLU as Direct Linear Solver
 Reference value :  9.15140e-09
 Reference value :  4.50233e-08
 Reference value :  8.16433e-08
 Reference value :  1.16344e-07
 Reference value :  1.50214e-07
 Reference value :  1.86188e-07
 Reference value :  2.23703e-07
 Reference value :  2.61568e-07
 Reference value :  2.96889e-07
 Reference value :  3.32299e-07
No. of Data Rows : 68032

  Measurements for Transient Analysis

tplh                =  3.18180e-10 targ=  2.64786e-08 trig=  2.61604e-08
tphl                =  1.07962e-09 targ=  1.01561e-07 trig=  1.00481e-07
i_vdd_avg           =  -1.82885e-06 from=  1.00000e-08 to=  3.30004e-07
power_avg_uw        =  3.14845e+00


Total analysis time (seconds) = 2.42502

Total elapsed time (seconds) = 2.607 

Total DRAM available = 16384.000 MB.
DRAM currently available =  134.594 MB.
Maximum ngspice program size =   26.219 MB.
Current ngspice program size =   26.219 MB.

