
Note: Compatibility modes selected: hs a


Circuit: SKY130 library cell oai21_1 A1_to_Y__A2=0,B1=1

option SCALE: Scale is set to 1e-06 for instance and model parameters
Doing analysis at TEMP = 85.992303 and TNOM = 27.000000

Using KLU as Direct Linear Solver
 Reference value :  3.13354e-08
 Reference value :  1.27863e-07
 Reference value :  2.26640e-07
 Reference value :  3.22588e-07
No. of Data Rows : 68034

  Measurements for Transient Analysis

tphl                =  1.05167e-09 targ=  2.58856e-08 trig=  2.48339e-08
tplh                =  2.40591e-09 targ=  9.89077e-08 trig=  9.65018e-08
i_vdd_avg           =  -1.99908e-06 from=  1.00000e-08 to=  3.30003e-07
power_avg_uw        =  3.32800e+00


Total analysis time (seconds) = 0.892068

Total elapsed time (seconds) = 1.053 

Total DRAM available = 16384.000 MB.
DRAM currently available =  142.609 MB.
Maximum ngspice program size =   25.094 MB.
Current ngspice program size =   25.094 MB.

