
Note: Compatibility modes selected: hs a


Circuit: SKY130 library cell nand3_1 A_to_Y__B=1,C=1

option SCALE: Scale is set to 1e-06 for instance and model parameters
Doing analysis at TEMP = 96.443953 and TNOM = 27.000000

Using KLU as Direct Linear Solver
 Reference value :  3.21983e-08
 Reference value :  1.38889e-07
 Reference value :  2.30048e-07
 Reference value :  3.25759e-07
No. of Data Rows : 68032

  Measurements for Transient Analysis

tphl                =  8.17244e-10 targ=  2.73676e-08 trig=  2.65504e-08
tplh                =  1.16399e-09 targ=  1.02815e-07 trig=  1.01651e-07
i_vdd_avg           =  -6.14975e-07 from=  1.00000e-08 to=  3.30004e-07
power_avg_uw        =  1.16262e+00


Total analysis time (seconds) = 0.892205

Total elapsed time (seconds) = 1.062 

Total DRAM available = 16384.000 MB.
DRAM currently available =  259.359 MB.
Maximum ngspice program size =   24.656 MB.
Current ngspice program size =   24.656 MB.

