Note: Starting dynamic gmin stepping
Note: Dynamic gmin stepping completed

Note: Compatibility modes selected: hs a


Circuit: SKY130 library cell mux2_4 A0_to_X__A1=0,S=0

option SCALE: Scale is set to 1e-06 for instance and model parameters
Doing analysis at TEMP = -12.690963 and TNOM = 27.000000

Using KLU as Direct Linear Solver
 Reference value :  9.64640e-09
 Reference value :  4.46771e-08
 Reference value :  8.01571e-08
 Reference value :  1.18542e-07
 Reference value :  1.54647e-07
 Reference value :  1.91912e-07
 Reference value :  2.28612e-07
 Reference value :  2.63282e-07
 Reference value :  2.98502e-07
 Reference value :  3.31532e-07
No. of Data Rows : 68032

  Measurements for Transient Analysis

tplh                =  -2.27156e-10 targ=  2.76927e-08 trig=  2.79198e-08
tphl                =  1.20594e-09 targ=  1.06965e-07 trig=  1.05759e-07
i_vdd_avg           =  -6.57412e-07 from=  1.00000e-08 to=  3.30002e-07
power_avg_uw        =  1.21530e+00


Total analysis time (seconds) = 2.43289

Total elapsed time (seconds) = 2.604 

Total DRAM available = 16384.000 MB.
DRAM currently available =  185.219 MB.
Maximum ngspice program size =   25.234 MB.
Current ngspice program size =   25.234 MB.

