
Note: Compatibility modes selected: hs a


Circuit: SKY130 library cell nor2_1 A_to_Y__B=0

option SCALE: Scale is set to 1e-06 for instance and model parameters
Doing analysis at TEMP = 15.857214 and TNOM = 27.000000

Using KLU as Direct Linear Solver
 Reference value :  5.65862e-08
 Reference value :  2.10791e-07
No. of Data Rows : 68034

  Measurements for Transient Analysis

tphl                =  1.57749e-09 targ=  2.76343e-08 trig=  2.60568e-08
tplh                =  4.04083e-09 targ=  1.04211e-07 trig=  1.00171e-07
i_vdd_avg           =  -2.12284e-06 from=  1.00000e-08 to=  3.30005e-07
power_avg_uw        =  4.08882e+00


Total analysis time (seconds) = 0.562413

Total elapsed time (seconds) = 0.711 

Total DRAM available = 16384.000 MB.
DRAM currently available =  148.328 MB.
Maximum ngspice program size =   26.641 MB.
Current ngspice program size =   26.641 MB.

