
Note: Compatibility modes selected: hs a


Circuit: SKY130 library cell aoi21_1 A1_to_Y__A2=1,B1=0

option SCALE: Scale is set to 1e-06 for instance and model parameters
Doing analysis at TEMP = -33.339309 and TNOM = 27.000000

Using KLU as Direct Linear Solver
 Reference value :  3.25499e-08
 Reference value :  1.28567e-07
 Reference value :  2.31820e-07
 Reference value :  3.32287e-07
No. of Data Rows : 68030

  Measurements for Transient Analysis

tphl                =  1.70480e-09 targ=  2.98935e-08 trig=  2.81887e-08
tplh                =  4.15513e-09 targ=  1.10721e-07 trig=  1.06566e-07
i_vdd_avg           =  -1.56649e-06 from=  1.00000e-08 to=  3.30002e-07
power_avg_uw        =  2.86960e+00


Total analysis time (seconds) = 0.867564

Total elapsed time (seconds) = 1.039 

Total DRAM available = 16384.000 MB.
DRAM currently available =  133.797 MB.
Maximum ngspice program size =   25.266 MB.
Current ngspice program size =   25.266 MB.

