
Note: Compatibility modes selected: hs a


Circuit: SKY130 library cell mux2_1 A0_to_X__A1=0,S=0

option SCALE: Scale is set to 1e-06 for instance and model parameters
Doing analysis at TEMP = 53.580708 and TNOM = 27.000000

Using KLU as Direct Linear Solver
 Reference value :  1.18614e-08
 Reference value :  6.53914e-08
 Reference value :  1.17515e-07
 Reference value :  1.69915e-07
 Reference value :  2.21401e-07
 Reference value :  2.75500e-07
 Reference value :  3.24045e-07
No. of Data Rows : 68032

  Measurements for Transient Analysis

tplh                =  1.28256e-09 targ=  3.04545e-08 trig=  2.91719e-08
tphl                =  2.12220e-09 targ=  1.11638e-07 trig=  1.09516e-07
i_vdd_avg           =  -2.17481e-06 from=  1.00000e-08 to=  3.30000e-07
power_avg_uw        =  3.84757e+00


Total analysis time (seconds) = 1.69312

Total elapsed time (seconds) = 1.882 

Total DRAM available = 16384.000 MB.
DRAM currently available =  171.391 MB.
Maximum ngspice program size =   27.188 MB.
Current ngspice program size =   27.188 MB.

