
Note: Compatibility modes selected: hs a


Circuit: SKY130 library cell nand3_4 A_to_Y__B=1,C=1

option SCALE: Scale is set to 1e-06 for instance and model parameters
Doing analysis at TEMP = 36.624420 and TNOM = 27.000000

Using KLU as Direct Linear Solver
 Reference value :  6.11140e-09
 Reference value :  3.32963e-08
 Reference value :  6.24613e-08
 Reference value :  9.01763e-08
 Reference value :  1.17715e-07
 Reference value :  1.43845e-07
 Reference value :  1.72715e-07
 Reference value :  2.00666e-07
 Reference value :  2.28606e-07
 Reference value :  2.57661e-07
 Reference value :  2.85860e-07
 Reference value :  3.12845e-07
 Reference value :  3.39295e-07
No. of Data Rows : 68032

  Measurements for Transient Analysis

tphl                =  4.82398e-10 targ=  2.55693e-08 trig=  2.50869e-08
tplh                =  7.21917e-10 targ=  9.79827e-08 trig=  9.72607e-08
i_vdd_avg           =  -1.77280e-06 from=  1.00000e-08 to=  3.30000e-07
power_avg_uw        =  3.43374e+00


Total analysis time (seconds) = 3.13965

Total elapsed time (seconds) = 3.327 

Total DRAM available = 16384.000 MB.
DRAM currently available =  107.156 MB.
Maximum ngspice program size =   27.547 MB.
Current ngspice program size =   27.547 MB.

