
Note: Compatibility modes selected: hs a


Circuit: SKY130 library cell oai21_4 A1_to_Y__A2=0,B1=1

option SCALE: Scale is set to 1e-06 for instance and model parameters
Doing analysis at TEMP = 2.188316 and TNOM = 27.000000

Using KLU as Direct Linear Solver
 Reference value :  8.25140e-09
 Reference value :  3.67516e-08
 Reference value :  6.61066e-08
 Reference value :  9.52716e-08
 Reference value :  1.21066e-07
 Reference value :  1.48971e-07
 Reference value :  1.77021e-07
 Reference value :  2.04787e-07
 Reference value :  2.32552e-07
 Reference value :  2.60312e-07
 Reference value :  2.88546e-07
 Reference value :  3.17106e-07
No. of Data Rows : 68032

  Measurements for Transient Analysis

tphl                =  8.70067e-10 targ=  2.79646e-08 trig=  2.70945e-08
tplh                =  1.88569e-09 targ=  1.05169e-07 trig=  1.03284e-07
i_vdd_avg           =  -6.52650e-07 from=  1.00000e-08 to=  3.30001e-07
power_avg_uw        =  1.12945e+00


Total analysis time (seconds) = 3.13278

Total elapsed time (seconds) = 3.297 

Total DRAM available = 16384.000 MB.
DRAM currently available =  141.922 MB.
Maximum ngspice program size =   26.781 MB.
Current ngspice program size =   26.781 MB.

