
Note: Compatibility modes selected: hs a


Circuit: SKY130 library cell inv_1 A_to_Y

option SCALE: Scale is set to 1e-06 for instance and model parameters
Doing analysis at TEMP = 90.090231 and TNOM = 27.000000

Using KLU as Direct Linear Solver
 Reference value :  1.21220e-07
No. of Data Rows : 68032

  Measurements for Transient Analysis

tphl                =  1.83682e-09 targ=  3.13499e-08 trig=  2.95130e-08
tplh                =  3.08379e-09 targ=  1.13623e-07 trig=  1.10539e-07
i_vdd_avg           =  -8.64384e-07 from=  1.00000e-08 to=  3.30005e-07
power_avg_uw        =  1.56902e+00


Total analysis time (seconds) = 0.31386

Total elapsed time (seconds) = 0.457 

Total DRAM available = 16384.000 MB.
DRAM currently available =  132.047 MB.
Maximum ngspice program size =   26.594 MB.
Current ngspice program size =   26.594 MB.

