
Note: Compatibility modes selected: hs a


Circuit: SKY130 library cell xor2_4 A_to_X__B=0

option SCALE: Scale is set to 1e-06 for instance and model parameters
Doing analysis at TEMP = 9.443516 and TNOM = 27.000000

Using KLU as Direct Linear Solver
 Reference value :  3.77140e-09
 Reference value :  2.07214e-08
 Reference value :  3.79432e-08
 Reference value :  5.57732e-08
 Reference value :  7.30132e-08
 Reference value :  9.01982e-08
 Reference value :  1.06773e-07
 Reference value :  1.23759e-07
 Reference value :  1.41464e-07
 Reference value :  1.59449e-07
 Reference value :  1.76434e-07
 Reference value :  1.92648e-07
 Reference value :  2.08983e-07
 Reference value :  2.26208e-07
 Reference value :  2.43863e-07
 Reference value :  2.62653e-07
 Reference value :  2.80154e-07
 Reference value :  2.97114e-07
 Reference value :  3.13984e-07
 Reference value :  3.29744e-07
No. of Data Rows : 68032

  Measurements for Transient Analysis

tplh                =  1.56398e-09 targ=  3.00943e-08 trig=  2.85304e-08
tphl                =  2.02258e-09 targ=  1.09614e-07 trig=  1.07591e-07
i_vdd_avg           =  -1.78909e-06 from=  1.00000e-08 to=  3.30004e-07
power_avg_uw        =  3.01994e+00


Total analysis time (seconds) = 5.01186

Total elapsed time (seconds) = 5.199 

Total DRAM available = 16384.000 MB.
DRAM currently available =  134.031 MB.
Maximum ngspice program size =   29.969 MB.
Current ngspice program size =   29.969 MB.

