
Note: Compatibility modes selected: hs a


Circuit: SKY130 library cell inv_4 A_to_Y

option SCALE: Scale is set to 1e-06 for instance and model parameters
Doing analysis at TEMP = -19.225225 and TNOM = 27.000000

Using KLU as Direct Linear Solver
 Reference value :  4.43061e-08
 Reference value :  1.40530e-07
 Reference value :  2.35596e-07
 Reference value :  3.28530e-07
No. of Data Rows : 68034

  Measurements for Transient Analysis

tphl                =  1.21810e-10 targ=  2.43386e-08 trig=  2.42168e-08
tplh                =  2.62362e-10 targ=  9.49128e-08 trig=  9.46504e-08
i_vdd_avg           =  -1.09906e-06 from=  1.00000e-08 to=  3.30005e-07
power_avg_uw        =  1.94731e+00


Total analysis time (seconds) = 0.901962

Total elapsed time (seconds) = 1.043 

Total DRAM available = 16384.000 MB.
DRAM currently available =  109.312 MB.
Maximum ngspice program size =   23.891 MB.
Current ngspice program size =   23.891 MB.

