
Note: Compatibility modes selected: hs a


Circuit: SKY130 library cell oai21_1 A1_to_Y__A2=0,B1=1

option SCALE: Scale is set to 1e-06 for instance and model parameters
Doing analysis at TEMP = -29.105070 and TNOM = 27.000000

Using KLU as Direct Linear Solver
 Reference value :  2.89325e-08
 Reference value :  1.27862e-07
 Reference value :  2.29710e-07
 Reference value :  3.34317e-07
No. of Data Rows : 68030

  Measurements for Transient Analysis

tphl                =  4.57681e-10 targ=  2.83688e-08 trig=  2.79111e-08
tplh                =  1.63409e-09 targ=  1.07367e-07 trig=  1.05733e-07
i_vdd_avg           =  -4.18580e-08 from=  1.00000e-08 to=  3.30002e-07
power_avg_uw        =  7.34450e-02


Total analysis time (seconds) = 0.842496

Total elapsed time (seconds) = 1.018 

Total DRAM available = 16384.000 MB.
DRAM currently available =   97.656 MB.
Maximum ngspice program size =   26.594 MB.
Current ngspice program size =   26.594 MB.

