
Note: Compatibility modes selected: hs a


Circuit: SKY130 library cell oai21_1 A1_to_Y__A2=0,B1=1

option SCALE: Scale is set to 1e-06 for instance and model parameters
Doing analysis at TEMP = -4.306196 and TNOM = 27.000000

Using KLU as Direct Linear Solver
 Reference value :  2.82775e-08
 Reference value :  1.23894e-07
 Reference value :  2.25506e-07
 Reference value :  3.22949e-07
No. of Data Rows : 68034

  Measurements for Transient Analysis

tphl                =  1.30154e-09 targ=  2.84506e-08 trig=  2.71491e-08
tplh                =  3.47351e-09 targ=  1.06921e-07 trig=  1.03447e-07
i_vdd_avg           =  -2.43729e-06 from=  1.00000e-08 to=  3.30004e-07
power_avg_uw        =  4.52453e+00


Total analysis time (seconds) = 0.880797

Total elapsed time (seconds) = 1.050 

Total DRAM available = 16384.000 MB.
DRAM currently available =   90.500 MB.
Maximum ngspice program size =   27.422 MB.
Current ngspice program size =   27.422 MB.

