
Note: Compatibility modes selected: hs a


Circuit: SKY130 library cell nand3_4 A_to_Y__B=1,C=1

option SCALE: Scale is set to 1e-06 for instance and model parameters
Doing analysis at TEMP = 123.233500 and TNOM = 27.000000

Using KLU as Direct Linear Solver
 Reference value :  6.53140e-09
 Reference value :  3.41620e-08
 Reference value :  6.07070e-08
 Reference value :  8.71170e-08
 Reference value :  1.13496e-07
 Reference value :  1.41596e-07
 Reference value :  1.68771e-07
 Reference value :  1.97127e-07
 Reference value :  2.25117e-07
 Reference value :  2.53202e-07
 Reference value :  2.81941e-07
 Reference value :  3.09526e-07
 Reference value :  3.36681e-07
No. of Data Rows : 68032

  Measurements for Transient Analysis

tphl                =  -8.38295e-11 targ=  2.58709e-08 trig=  2.59547e-08
tplh                =  2.12962e-10 targ=  1.00077e-07 trig=  9.98642e-08
i_vdd_avg           =  -1.45350e-06 from=  1.00000e-08 to=  3.30001e-07
power_avg_uw        =  2.66773e+00


Total analysis time (seconds) = 3.12343

Total elapsed time (seconds) = 3.301 

Total DRAM available = 16384.000 MB.
DRAM currently available =  125.078 MB.
Maximum ngspice program size =   30.500 MB.
Current ngspice program size =   30.500 MB.

