
Note: Compatibility modes selected: hs a


Circuit: SKY130 library cell nand2_1 A_to_Y__B=1

option SCALE: Scale is set to 1e-06 for instance and model parameters
Doing analysis at TEMP = 35.603722 and TNOM = 27.000000

Using KLU as Direct Linear Solver
 Reference value :  6.49741e-08
 Reference value :  2.28824e-07
No. of Data Rows : 68030

  Measurements for Transient Analysis

tphl                =  2.17226e-09 targ=  2.79181e-08 trig=  2.57458e-08
tplh                =  2.90001e-09 targ=  1.02137e-07 trig=  9.92374e-08
i_vdd_avg           =  -1.48018e-06 from=  1.00000e-08 to=  3.30001e-07
power_avg_uw        =  2.41257e+00


Total analysis time (seconds) = 0.525343

Total elapsed time (seconds) = 0.669 

Total DRAM available = 16384.000 MB.
DRAM currently available =  150.172 MB.
Maximum ngspice program size =   27.203 MB.
Current ngspice program size =   27.203 MB.

