
Note: Compatibility modes selected: hs a


Circuit: SKY130 library cell inv_1 A_to_Y

option SCALE: Scale is set to 1e-06 for instance and model parameters
Doing analysis at TEMP = 118.255230 and TNOM = 27.000000

Using KLU as Direct Linear Solver
 Reference value :  8.99923e-08
No. of Data Rows : 68032

  Measurements for Transient Analysis

tphl                =  4.71915e-10 targ=  2.66543e-08 trig=  2.61824e-08
tplh                =  1.18388e-09 targ=  1.01731e-07 trig=  1.00547e-07
i_vdd_avg           =  -1.36275e-06 from=  1.00000e-08 to=  3.30002e-07
power_avg_uw        =  2.63092e+00


Total analysis time (seconds) = 0.340128

Total elapsed time (seconds) = 0.486 

Total DRAM available = 16384.000 MB.
DRAM currently available =  132.047 MB.
Maximum ngspice program size =   25.438 MB.
Current ngspice program size =   25.438 MB.

