
Note: Compatibility modes selected: hs a


Circuit: SKY130 library cell aoi21_4 A1_to_Y__A2=1,B1=0

option SCALE: Scale is set to 1e-06 for instance and model parameters
Doing analysis at TEMP = -27.162400 and TNOM = 27.000000

Using KLU as Direct Linear Solver
 Reference value :  6.94640e-09
 Reference value :  3.62652e-08
 Reference value :  6.42552e-08
 Reference value :  9.33552e-08
 Reference value :  1.23838e-07
 Reference value :  1.51043e-07
 Reference value :  1.79473e-07
 Reference value :  2.08635e-07
 Reference value :  2.36135e-07
 Reference value :  2.64578e-07
 Reference value :  2.93788e-07
 Reference value :  3.20763e-07
No. of Data Rows : 68034

  Measurements for Transient Analysis

tphl                =  2.21523e-10 targ=  2.57379e-08 trig=  2.55164e-08
tplh                =  1.02303e-09 targ=  9.95721e-08 trig=  9.85491e-08
i_vdd_avg           =  -1.21312e-06 from=  1.00000e-08 to=  3.30003e-07
power_avg_uw        =  2.11737e+00


Total analysis time (seconds) = 3.03667

Total elapsed time (seconds) = 3.217 

Total DRAM available = 16384.000 MB.
DRAM currently available =  125.766 MB.
Maximum ngspice program size =   26.297 MB.
Current ngspice program size =   26.297 MB.

