
Note: Compatibility modes selected: hs a


Circuit: SKY130 library cell inv_4 A_to_Y

option SCALE: Scale is set to 1e-06 for instance and model parameters
Doing analysis at TEMP = 109.138500 and TNOM = 27.000000

Using KLU as Direct Linear Solver
 Reference value :  4.23647e-08
 Reference value :  1.36902e-07
 Reference value :  2.24055e-07
 Reference value :  3.14712e-07
No. of Data Rows : 68030

  Measurements for Transient Analysis

tphl                =  1.28368e-09 targ=  2.90948e-08 trig=  2.78111e-08
tplh                =  1.97473e-09 targ=  1.07408e-07 trig=  1.05433e-07
i_vdd_avg           =  -1.45695e-06 from=  1.00000e-08 to=  3.30002e-07
power_avg_uw        =  2.43195e+00


Total analysis time (seconds) = 0.939543

Total elapsed time (seconds) = 1.078 

Total DRAM available = 16384.000 MB.
DRAM currently available =  146.531 MB.
Maximum ngspice program size =   26.219 MB.
Current ngspice program size =   26.219 MB.

