
Note: Compatibility modes selected: hs a


Circuit: SKY130 library cell mux2_4 A0_to_X__A1=0,S=0

option SCALE: Scale is set to 1e-06 for instance and model parameters
Doing analysis at TEMP = 96.507797 and TNOM = 27.000000

Using KLU as Direct Linear Solver
 Reference value :  8.73640e-09
 Reference value :  4.68532e-08
 Reference value :  8.16282e-08
 Reference value :  1.18489e-07
 Reference value :  1.55724e-07
 Reference value :  1.91688e-07
 Reference value :  2.28693e-07
 Reference value :  2.63403e-07
 Reference value :  2.99654e-07
 Reference value :  3.35074e-07
No. of Data Rows : 68032

  Measurements for Transient Analysis

tplh                =  9.57591e-10 targ=  2.77504e-08 trig=  2.67929e-08
tphl                =  1.39949e-09 targ=  1.03778e-07 trig=  1.02379e-07
i_vdd_avg           =  -1.40664e-06 from=  1.00000e-08 to=  3.30004e-07
power_avg_uw        =  2.56187e+00


Total analysis time (seconds) = 2.38131

Total elapsed time (seconds) = 2.567 

Total DRAM available = 16384.000 MB.
DRAM currently available =  134.594 MB.
Maximum ngspice program size =   29.297 MB.
Current ngspice program size =   29.297 MB.

