
Note: Compatibility modes selected: hs a


Circuit: SKY130 library cell xor2_4 A_to_X__B=0

option SCALE: Scale is set to 1e-06 for instance and model parameters
Doing analysis at TEMP = 1.160841 and TNOM = 27.000000

Using KLU as Direct Linear Solver
 Reference value :  3.93640e-09
 Reference value :  2.05764e-08
 Reference value :  3.82558e-08
 Reference value :  5.55458e-08
 Reference value :  7.32508e-08
 Reference value :  9.05408e-08
 Reference value :  1.06674e-07
 Reference value :  1.24369e-07
 Reference value :  1.41274e-07
 Reference value :  1.58839e-07
 Reference value :  1.76439e-07
 Reference value :  1.95441e-07
 Reference value :  2.12986e-07
 Reference value :  2.30191e-07
 Reference value :  2.47426e-07
 Reference value :  2.64506e-07
 Reference value :  2.82464e-07
 Reference value :  2.99809e-07
 Reference value :  3.16919e-07
 Reference value :  3.33054e-07
No. of Data Rows : 68034

  Measurements for Transient Analysis

tplh                =  1.45462e-09 targ=  2.84413e-08 trig=  2.69866e-08
tphl                =  1.46893e-09 targ=  1.04429e-07 trig=  1.02960e-07
i_vdd_avg           =  -2.24580e-06 from=  1.00000e-08 to=  3.30004e-07
power_avg_uw        =  3.95631e+00


Total analysis time (seconds) = 4.96393

Total elapsed time (seconds) = 5.194 

Total DRAM available = 16384.000 MB.
DRAM currently available =  123.109 MB.
Maximum ngspice program size =   27.578 MB.
Current ngspice program size =   27.578 MB.

