
Note: Compatibility modes selected: hs a


Circuit: SKY130 library cell xor2_1 A_to_X__B=0

option SCALE: Scale is set to 1e-06 for instance and model parameters
Doing analysis at TEMP = 49.082942 and TNOM = 27.000000

Using KLU as Direct Linear Solver
 Reference value :  2.20214e-08
 Reference value :  9.34312e-08
 Reference value :  1.59170e-07
 Reference value :  2.27051e-07
 Reference value :  2.95285e-07
No. of Data Rows : 68034

  Measurements for Transient Analysis

tplh                =  4.19145e-09 targ=  3.22983e-08 trig=  2.81069e-08
tphl                =  2.04352e-09 targ=  1.08364e-07 trig=  1.06321e-07
i_vdd_avg           =  -2.01367e-06 from=  1.00000e-08 to=  3.30005e-07
power_avg_uw        =  3.50965e+00


Total analysis time (seconds) = 1.26729

Total elapsed time (seconds) = 1.430 

Total DRAM available = 16384.000 MB.
DRAM currently available =  115.953 MB.
Maximum ngspice program size =   27.672 MB.
Current ngspice program size =   27.672 MB.

