
Note: Compatibility modes selected: hs a


Circuit: SKY130 library cell xor2_4 A_to_X__B=0

option SCALE: Scale is set to 1e-06 for instance and model parameters
Doing analysis at TEMP = 104.129230 and TNOM = 27.000000

Using KLU as Direct Linear Solver
 Reference value :  2.80640e-09
 Reference value :  2.05164e-08
 Reference value :  3.82225e-08
 Reference value :  5.52025e-08
 Reference value :  7.25425e-08
 Reference value :  8.99275e-08
 Reference value :  1.06703e-07
 Reference value :  1.24428e-07
 Reference value :  1.42098e-07
 Reference value :  1.59683e-07
 Reference value :  1.76283e-07
 Reference value :  1.93898e-07
 Reference value :  2.11253e-07
 Reference value :  2.28058e-07
 Reference value :  2.45973e-07
 Reference value :  2.63883e-07
 Reference value :  2.81693e-07
 Reference value :  2.99623e-07
 Reference value :  3.16098e-07
 Reference value :  3.32608e-07
No. of Data Rows : 68032

  Measurements for Transient Analysis

tplh                =  6.01864e-10 targ=  2.66244e-08 trig=  2.60225e-08
tphl                =  6.44984e-10 targ=  1.00713e-07 trig=  1.00068e-07
i_vdd_avg           =  -1.91690e-06 from=  1.00000e-08 to=  3.30003e-07
power_avg_uw        =  3.79239e+00


Total analysis time (seconds) = 4.9678

Total elapsed time (seconds) = 5.165 

Total DRAM available = 16384.000 MB.
DRAM currently available =  105.984 MB.
Maximum ngspice program size =   29.391 MB.
Current ngspice program size =   29.391 MB.

