
Note: Compatibility modes selected: hs a


Circuit: SKY130 library cell inv_1 A_to_Y

option SCALE: Scale is set to 1e-06 for instance and model parameters
Doing analysis at TEMP = 45.773538 and TNOM = 27.000000

Using KLU as Direct Linear Solver
 Reference value :  1.17269e-07
No. of Data Rows : 68032

  Measurements for Transient Analysis

tphl                =  1.70207e-09 targ=  2.83424e-08 trig=  2.66403e-08
tplh                =  2.72582e-09 targ=  1.04647e-07 trig=  1.01921e-07
i_vdd_avg           =  -1.33268e-06 from=  1.00000e-08 to=  3.30004e-07
power_avg_uw        =  2.37994e+00


Total analysis time (seconds) = 0.318217

Total elapsed time (seconds) = 0.462 

Total DRAM available = 16384.000 MB.
DRAM currently available =  336.047 MB.
Maximum ngspice program size =   24.219 MB.
Current ngspice program size =   24.219 MB.

