
Note: Compatibility modes selected: hs a


Circuit: SKY130 library cell mux2_1 A0_to_X__A1=0,S=0

option SCALE: Scale is set to 1e-06 for instance and model parameters
Doing analysis at TEMP = -36.725437 and TNOM = 27.000000

Using KLU as Direct Linear Solver
 Reference value :  1.45864e-08
 Reference value :  6.61503e-08
 Reference value :  1.19188e-07
 Reference value :  1.72688e-07
 Reference value :  2.26630e-07
 Reference value :  2.79103e-07
 Reference value :  3.34223e-07
No. of Data Rows : 68034

  Measurements for Transient Analysis

tplh                =  5.97405e-10 targ=  3.00988e-08 trig=  2.95014e-08
tphl                =  2.01744e-09 targ=  1.12522e-07 trig=  1.10504e-07
i_vdd_avg           =  -1.17121e-06 from=  1.00000e-08 to=  3.30003e-07
power_avg_uw        =  2.17538e+00


Total analysis time (seconds) = 1.64274

Total elapsed time (seconds) = 1.814 

Total DRAM available = 16384.000 MB.
DRAM currently available =  168.500 MB.
Maximum ngspice program size =   27.203 MB.
Current ngspice program size =   27.203 MB.

