
Note: Compatibility modes selected: hs a


Circuit: SKY130 library cell nand3_4 A_to_Y__B=1,C=1

option SCALE: Scale is set to 1e-06 for instance and model parameters
Doing analysis at TEMP = 20.044086 and TNOM = 27.000000

Using KLU as Direct Linear Solver
 Reference value :  7.13640e-09
 Reference value :  3.55775e-08
 Reference value :  6.34736e-08
 Reference value :  9.18136e-08
 Reference value :  1.20830e-07
 Reference value :  1.48635e-07
 Reference value :  1.76620e-07
 Reference value :  2.05914e-07
 Reference value :  2.33379e-07
 Reference value :  2.61954e-07
 Reference value :  2.91295e-07
 Reference value :  3.20775e-07
No. of Data Rows : 68032

  Measurements for Transient Analysis

tphl                =  -7.79523e-10 targ=  2.91585e-08 trig=  2.99380e-08
tplh                =  9.95622e-10 targ=  1.12810e-07 trig=  1.11814e-07
i_vdd_avg           =  -3.40616e-06 from=  1.00000e-08 to=  3.30005e-07
power_avg_uw        =  6.67801e+00


Total analysis time (seconds) = 3.02122

Total elapsed time (seconds) = 3.198 

Total DRAM available = 16384.000 MB.
DRAM currently available =  174.391 MB.
Maximum ngspice program size =   28.234 MB.
Current ngspice program size =   28.234 MB.

