
Note: Compatibility modes selected: hs a


Circuit: SKY130 library cell inv_1 A_to_Y

option SCALE: Scale is set to 1e-06 for instance and model parameters
Doing analysis at TEMP = -24.963163 and TNOM = 27.000000

Using KLU as Direct Linear Solver
 Reference value :  9.78199e-08
No. of Data Rows : 68030

  Measurements for Transient Analysis

tphl                =  1.58958e-09 targ=  2.92383e-08 trig=  2.76487e-08
tplh                =  3.43025e-09 targ=  1.08376e-07 trig=  1.04946e-07
i_vdd_avg           =  -1.92422e-06 from=  1.00000e-08 to=  3.30002e-07
power_avg_uw        =  3.47774e+00


Total analysis time (seconds) = 0.33487

Total elapsed time (seconds) = 0.515 

Total DRAM available = 16384.000 MB.
DRAM currently available =   75.031 MB.
Maximum ngspice program size =   23.953 MB.
Current ngspice program size =   23.953 MB.

