
Note: Compatibility modes selected: hs a


Circuit: SKY130 library cell nor2_4 A_to_Y__B=0

option SCALE: Scale is set to 1e-06 for instance and model parameters
Doing analysis at TEMP = 106.578250 and TNOM = 27.000000

Using KLU as Direct Linear Solver
 Reference value :  1.09614e-08
 Reference value :  5.55720e-08
 Reference value :  1.00022e-07
 Reference value :  1.46662e-07
 Reference value :  1.92747e-07
 Reference value :  2.36047e-07
 Reference value :  2.77937e-07
 Reference value :  3.24352e-07
No. of Data Rows : 68032

  Measurements for Transient Analysis

tphl                =  7.82084e-10 targ=  2.77993e-08 trig=  2.70173e-08
tplh                =  1.47636e-09 targ=  1.04528e-07 trig=  1.03052e-07
i_vdd_avg           =  -1.25709e-06 from=  1.00000e-08 to=  3.30002e-07
power_avg_uw        =  2.28360e+00


Total analysis time (seconds) = 1.94088

Total elapsed time (seconds) = 2.115 

Total DRAM available = 16384.000 MB.
DRAM currently available =  103.906 MB.
Maximum ngspice program size =   28.266 MB.
Current ngspice program size =   28.266 MB.

