
Note: Compatibility modes selected: hs a


Circuit: SKY130 library cell nand3_4 A_to_Y__B=1,C=1

option SCALE: Scale is set to 1e-06 for instance and model parameters
Doing analysis at TEMP = 81.702571 and TNOM = 27.000000

Using KLU as Direct Linear Solver
 Reference value :  8.76640e-09
 Reference value :  3.58137e-08
 Reference value :  6.39137e-08
 Reference value :  9.29437e-08
 Reference value :  1.22320e-07
 Reference value :  1.51155e-07
 Reference value :  1.80120e-07
 Reference value :  2.07309e-07
 Reference value :  2.34359e-07
 Reference value :  2.62979e-07
 Reference value :  2.92490e-07
 Reference value :  3.20780e-07
No. of Data Rows : 68032

  Measurements for Transient Analysis

tphl                =  9.98328e-10 targ=  2.89739e-08 trig=  2.79756e-08
tplh                =  1.42547e-09 targ=  1.07352e-07 trig=  1.05927e-07
i_vdd_avg           =  -1.10428e-06 from=  1.00000e-08 to=  3.30005e-07
power_avg_uw        =  2.04865e+00


Total analysis time (seconds) = 3.03418

Total elapsed time (seconds) = 3.203 

Total DRAM available = 16384.000 MB.
DRAM currently available =  125.078 MB.
Maximum ngspice program size =   29.047 MB.
Current ngspice program size =   29.047 MB.

