
Note: Compatibility modes selected: hs a


Circuit: SKY130 library cell oai21_1 A1_to_Y__A2=0,B1=1

option SCALE: Scale is set to 1e-06 for instance and model parameters
Doing analysis at TEMP = 40.204315 and TNOM = 27.000000

Using KLU as Direct Linear Solver
 Reference value :  3.29578e-08
 Reference value :  1.30553e-07
 Reference value :  2.28478e-07
 Reference value :  3.22173e-07
No. of Data Rows : 68032

  Measurements for Transient Analysis

tphl                =  1.15240e-09 targ=  2.71151e-08 trig=  2.59627e-08
tplh                =  2.66781e-09 targ=  1.02556e-07 trig=  9.98880e-08
i_vdd_avg           =  -1.90433e-06 from=  1.00000e-08 to=  3.30003e-07
power_avg_uw        =  3.32887e+00


Total analysis time (seconds) = 0.956188

Total elapsed time (seconds) = 1.109 

Total DRAM available = 16384.000 MB.
DRAM currently available =   48.703 MB.
Maximum ngspice program size =   25.188 MB.
Current ngspice program size =   25.188 MB.

