
Note: Compatibility modes selected: hs a


Circuit: SKY130 library cell nand3_4 A_to_Y__B=1,C=1

option SCALE: Scale is set to 1e-06 for instance and model parameters
Doing analysis at TEMP = 56.651915 and TNOM = 27.000000

Using KLU as Direct Linear Solver
 Reference value :  7.60140e-09
 Reference value :  3.45275e-08
 Reference value :  6.27725e-08
 Reference value :  9.07825e-08
 Reference value :  1.18203e-07
 Reference value :  1.46078e-07
 Reference value :  1.74288e-07
 Reference value :  2.02263e-07
 Reference value :  2.30883e-07
 Reference value :  2.59148e-07
 Reference value :  2.86623e-07
 Reference value :  3.15963e-07
No. of Data Rows : 68032

  Measurements for Transient Analysis

tphl                =  3.92059e-10 targ=  2.97646e-08 trig=  2.93725e-08
tplh                =  1.75477e-09 targ=  1.11872e-07 trig=  1.10118e-07
i_vdd_avg           =  -3.80130e-06 from=  1.00000e-08 to=  3.30003e-07
power_avg_uw        =  6.92851e+00


Total analysis time (seconds) = 3.13281

Total elapsed time (seconds) = 3.328 

Total DRAM available = 16384.000 MB.
DRAM currently available =  117.812 MB.
Maximum ngspice program size =   28.469 MB.
Current ngspice program size =   28.469 MB.

