
Note: Compatibility modes selected: hs a


Circuit: SKY130 library cell nand3_4 A_to_Y__B=1,C=1

option SCALE: Scale is set to 1e-06 for instance and model parameters
Doing analysis at TEMP = 15.973538 and TNOM = 27.000000

Using KLU as Direct Linear Solver
 Reference value :  5.97140e-09
 Reference value :  3.45597e-08
 Reference value :  6.32697e-08
 Reference value :  9.31647e-08
 Reference value :  1.20002e-07
 Reference value :  1.49887e-07
 Reference value :  1.79802e-07
 Reference value :  2.08660e-07
 Reference value :  2.37200e-07
 Reference value :  2.66190e-07
 Reference value :  2.93447e-07
 Reference value :  3.20232e-07
No. of Data Rows : 68030

  Measurements for Transient Analysis

tphl                =  3.87971e-10 targ=  2.87741e-08 trig=  2.83861e-08
tplh                =  1.76558e-09 targ=  1.08924e-07 trig=  1.07158e-07
i_vdd_avg           =  -3.05094e-06 from=  1.00000e-08 to=  3.30002e-07
power_avg_uw        =  5.54730e+00


Total analysis time (seconds) = 3.06039

Total elapsed time (seconds) = 3.247 

Total DRAM available = 16384.000 MB.
DRAM currently available =  107.156 MB.
Maximum ngspice program size =   26.281 MB.
Current ngspice program size =   26.281 MB.

