
Note: Compatibility modes selected: hs a


Circuit: SKY130 library cell nor2_1 A_to_Y__B=0

option SCALE: Scale is set to 1e-06 for instance and model parameters
Doing analysis at TEMP = 48.369352 and TNOM = 27.000000

Using KLU as Direct Linear Solver
 Reference value :  4.44332e-08
 Reference value :  2.01773e-07
 Reference value :  3.32499e-07
No. of Data Rows : 68032

  Measurements for Transient Analysis

tphl                =  1.04655e-09 targ=  2.70344e-08 trig=  2.59879e-08
tplh                =  2.50064e-09 targ=  1.02464e-07 trig=  9.99636e-08
i_vdd_avg           =  -1.33253e-06 from=  1.00000e-08 to=  3.30004e-07
power_avg_uw        =  2.38502e+00


Total analysis time (seconds) = 0.602058

Total elapsed time (seconds) = 0.765 

Total DRAM available = 16384.000 MB.
DRAM currently available =  183.094 MB.
Maximum ngspice program size =   25.609 MB.
Current ngspice program size =   25.609 MB.

