
Note: Compatibility modes selected: hs a


Circuit: SKY130 library cell oai21_4 A1_to_Y__A2=0,B1=1

option SCALE: Scale is set to 1e-06 for instance and model parameters
Doing analysis at TEMP = 93.304600 and TNOM = 27.000000

Using KLU as Direct Linear Solver
 Reference value :  4.71640e-09
 Reference value :  2.78225e-08
 Reference value :  5.27344e-08
 Reference value :  7.73494e-08
 Reference value :  1.01629e-07
 Reference value :  1.26996e-07
 Reference value :  1.53091e-07
 Reference value :  1.78261e-07
 Reference value :  2.04529e-07
 Reference value :  2.30884e-07
 Reference value :  2.55824e-07
 Reference value :  2.82306e-07
 Reference value :  3.11191e-07
 Reference value :  3.37451e-07
No. of Data Rows : 68030

  Measurements for Transient Analysis

tphl                =  6.38751e-10 targ=  2.89147e-08 trig=  2.82759e-08
tplh                =  1.25428e-09 targ=  1.08082e-07 trig=  1.06828e-07
i_vdd_avg           =  -3.63035e-07 from=  1.00000e-08 to=  3.30001e-07
power_avg_uw        =  6.13398e-01


Total analysis time (seconds) = 3.67449

Total elapsed time (seconds) = 3.900 

Total DRAM available = 16384.000 MB.
DRAM currently available =  217.016 MB.
Maximum ngspice program size =   32.031 MB.
Current ngspice program size =   32.031 MB.

