
Note: Compatibility modes selected: hs a


Circuit: SKY130 library cell aoi21_1 A1_to_Y__A2=1,B1=0

option SCALE: Scale is set to 1e-06 for instance and model parameters
Doing analysis at TEMP = -23.769084 and TNOM = 27.000000

Using KLU as Direct Linear Solver
 Reference value :  3.24011e-08
 Reference value :  1.31685e-07
 Reference value :  2.37761e-07
 Reference value :  3.36130e-07
No. of Data Rows : 68034

  Measurements for Transient Analysis

tphl                =  1.07556e-09 targ=  2.64099e-08 trig=  2.53343e-08
tplh                =  2.33033e-09 targ=  1.00333e-07 trig=  9.80029e-08
i_vdd_avg           =  -5.79172e-07 from=  1.00000e-08 to=  3.30005e-07
power_avg_uw        =  9.76398e-01


Total analysis time (seconds) = 0.85705

Total elapsed time (seconds) = 1.017 

Total DRAM available = 16384.000 MB.
DRAM currently available =  151.562 MB.
Maximum ngspice program size =   26.562 MB.
Current ngspice program size =   26.562 MB.

