Note: Starting dynamic gmin stepping
Note: Dynamic gmin stepping completed

Note: Compatibility modes selected: hs a


Circuit: SKY130 library cell mux2_1 A0_to_X__A1=0,S=0

option SCALE: Scale is set to 1e-06 for instance and model parameters
Doing analysis at TEMP = 20.410409 and TNOM = 27.000000

Using KLU as Direct Linear Solver
 Reference value :  1.40264e-08
 Reference value :  6.24820e-08
 Reference value :  1.08002e-07
 Reference value :  1.56592e-07
 Reference value :  2.06887e-07
 Reference value :  2.53637e-07
 Reference value :  3.03017e-07
No. of Data Rows : 68032

  Measurements for Transient Analysis

tplh                =  7.38844e-10 targ=  2.80461e-08 trig=  2.73073e-08
tphl                =  1.38239e-09 targ=  1.05304e-07 trig=  1.03922e-07
i_vdd_avg           =  -1.84578e-06 from=  1.00000e-08 to=  3.30002e-07
power_avg_uw        =  3.23701e+00


Total analysis time (seconds) = 1.88139

Total elapsed time (seconds) = 2.064 

Total DRAM available = 16384.000 MB.
DRAM currently available =  153.047 MB.
Maximum ngspice program size =   25.484 MB.
Current ngspice program size =   25.484 MB.

