
Note: Compatibility modes selected: hs a


Circuit: SKY130 library cell inv_4 A_to_Y

option SCALE: Scale is set to 1e-06 for instance and model parameters
Doing analysis at TEMP = 83.014994 and TNOM = 27.000000

Using KLU as Direct Linear Solver
 Reference value :  3.67350e-08
 Reference value :  1.37197e-07
 Reference value :  2.31440e-07
 Reference value :  3.26212e-07
No. of Data Rows : 68030

  Measurements for Transient Analysis

tphl                =  -6.70977e-11 targ=  2.67866e-08 trig=  2.68537e-08
tplh                =  8.70942e-10 targ=  1.03432e-07 trig=  1.02561e-07
i_vdd_avg           =  -3.39090e-06 from=  1.00000e-08 to=  3.30002e-07
power_avg_uw        =  6.66122e+00


Total analysis time (seconds) = 0.889468

Total elapsed time (seconds) = 1.037 

Total DRAM available = 16384.000 MB.
DRAM currently available =   91.594 MB.
Maximum ngspice program size =   26.656 MB.
Current ngspice program size =   26.656 MB.

