Note: Starting dynamic gmin stepping
Note: Dynamic gmin stepping completed

Note: Compatibility modes selected: hs a


Circuit: SKY130 library cell mux2_1 A0_to_X__A1=0,S=0

option SCALE: Scale is set to 1e-06 for instance and model parameters
Doing analysis at TEMP = -23.563417 and TNOM = 27.000000

Using KLU as Direct Linear Solver
 Reference value :  1.52864e-08
 Reference value :  6.79075e-08
 Reference value :  1.23333e-07
 Reference value :  1.74518e-07
 Reference value :  2.25623e-07
 Reference value :  2.75813e-07
 Reference value :  3.30468e-07
No. of Data Rows : 68032

  Measurements for Transient Analysis

tplh                =  4.04535e-10 targ=  2.65395e-08 trig=  2.61350e-08
tphl                =  9.58359e-10 targ=  1.01363e-07 trig=  1.00405e-07
i_vdd_avg           =  -1.41823e-06 from=  1.00000e-08 to=  3.30003e-07
power_avg_uw        =  2.74921e+00


Total analysis time (seconds) = 1.70156

Total elapsed time (seconds) = 1.874 

Total DRAM available = 16384.000 MB.
DRAM currently available =  171.391 MB.
Maximum ngspice program size =   29.031 MB.
Current ngspice program size =   29.031 MB.

