
Note: Compatibility modes selected: hs a


Circuit: SKY130 library cell oai21_4 A1_to_Y__A2=0,B1=1

option SCALE: Scale is set to 1e-06 for instance and model parameters
Doing analysis at TEMP = 27.867669 and TNOM = 27.000000

Using KLU as Direct Linear Solver
 Reference value :  7.77640e-09
 Reference value :  3.49710e-08
 Reference value :  6.27010e-08
 Reference value :  9.25060e-08
 Reference value :  1.20169e-07
 Reference value :  1.47779e-07
 Reference value :  1.75789e-07
 Reference value :  2.04816e-07
 Reference value :  2.32346e-07
 Reference value :  2.61784e-07
 Reference value :  2.91264e-07
 Reference value :  3.19544e-07
No. of Data Rows : 68034

  Measurements for Transient Analysis

tphl                =  1.11176e-10 targ=  2.45204e-08 trig=  2.44092e-08
tplh                =  2.69598e-10 targ=  9.54973e-08 trig=  9.52277e-08
i_vdd_avg           =  -1.59228e-07 from=  1.00000e-08 to=  3.30004e-07
power_avg_uw        =  2.60427e-01


Total analysis time (seconds) = 3.03878

Total elapsed time (seconds) = 3.207 

Total DRAM available = 16384.000 MB.
DRAM currently available =  131.406 MB.
Maximum ngspice program size =   25.547 MB.
Current ngspice program size =   25.547 MB.

