
Note: Compatibility modes selected: hs a


Circuit: SKY130 library cell nand2_1 A_to_Y__B=1

option SCALE: Scale is set to 1e-06 for instance and model parameters
Doing analysis at TEMP = 23.459704 and TNOM = 27.000000

Using KLU as Direct Linear Solver
 Reference value :  6.97390e-08
 Reference value :  2.33109e-07
No. of Data Rows : 68030

  Measurements for Transient Analysis

tphl                =  1.97824e-10 targ=  2.93211e-08 trig=  2.91232e-08
tplh                =  1.93630e-09 targ=  1.11306e-07 trig=  1.09370e-07
i_vdd_avg           =  -1.16832e-06 from=  1.00000e-08 to=  3.30000e-07
power_avg_uw        =  2.24509e+00


Total analysis time (seconds) = 0.518171

Total elapsed time (seconds) = 0.664 

Total DRAM available = 16384.000 MB.
DRAM currently available =  101.219 MB.
Maximum ngspice program size =   27.469 MB.
Current ngspice program size =   27.469 MB.

