
Note: Compatibility modes selected: hs a


Circuit: SKY130 library cell nor2_4 A_to_Y__B=0

option SCALE: Scale is set to 1e-06 for instance and model parameters
Doing analysis at TEMP = 3.364027 and TNOM = 27.000000

Using KLU as Direct Linear Solver
 Reference value :  1.36914e-08
 Reference value :  5.94811e-08
 Reference value :  1.05051e-07
 Reference value :  1.49195e-07
 Reference value :  1.91618e-07
 Reference value :  2.35836e-07
 Reference value :  2.81020e-07
 Reference value :  3.25190e-07
No. of Data Rows : 68034

  Measurements for Transient Analysis

tphl                =  -3.01917e-10 targ=  2.95849e-08 trig=  2.98868e-08
tplh                =  1.45746e-09 targ=  1.13118e-07 trig=  1.11660e-07
i_vdd_avg           =  -3.86279e-07 from=  1.00000e-08 to=  3.30005e-07
power_avg_uw        =  6.80139e-01


Total analysis time (seconds) = 1.9674

Total elapsed time (seconds) = 2.116 

Total DRAM available = 16384.000 MB.
DRAM currently available =  167.438 MB.
Maximum ngspice program size =   26.594 MB.
Current ngspice program size =   26.594 MB.

