
Note: Compatibility modes selected: hs a


Circuit: SKY130 library cell nand3_1 A_to_Y__B=1,C=1

option SCALE: Scale is set to 1e-06 for instance and model parameters
Doing analysis at TEMP = -38.204124 and TNOM = 27.000000

Using KLU as Direct Linear Solver
 Reference value :  2.54675e-08
 Reference value :  1.21842e-07
 Reference value :  2.21050e-07
 Reference value :  3.17657e-07
No. of Data Rows : 68030

  Measurements for Transient Analysis

tphl                =  1.02057e-09 targ=  2.80692e-08 trig=  2.70486e-08
tplh                =  2.12915e-09 targ=  1.05275e-07 trig=  1.03146e-07
i_vdd_avg           =  -4.14507e-07 from=  1.00000e-08 to=  3.30002e-07
power_avg_uw        =  6.96015e-01


Total analysis time (seconds) = 0.92014

Total elapsed time (seconds) = 1.093 

Total DRAM available = 16384.000 MB.
DRAM currently available =  133.422 MB.
Maximum ngspice program size =   27.500 MB.
Current ngspice program size =   27.500 MB.

