
Note: Compatibility modes selected: hs a


Circuit: SKY130 library cell inv_1 A_to_Y

option SCALE: Scale is set to 1e-06 for instance and model parameters
Doing analysis at TEMP = 84.569045 and TNOM = 27.000000

Using KLU as Direct Linear Solver
 Reference value :  1.28502e-07
No. of Data Rows : 68030

  Measurements for Transient Analysis

tphl                =  9.95754e-10 targ=  2.59218e-08 trig=  2.49261e-08
tplh                =  1.59670e-09 targ=  9.83750e-08 trig=  9.67783e-08
i_vdd_avg           =  -1.01106e-06 from=  1.00000e-08 to=  3.30002e-07
power_avg_uw        =  1.67057e+00


Total analysis time (seconds) = 0.302042

Total elapsed time (seconds) = 0.431 

Total DRAM available = 16384.000 MB.
DRAM currently available =  336.047 MB.
Maximum ngspice program size =   25.000 MB.
Current ngspice program size =   25.000 MB.

