
Note: Compatibility modes selected: hs a


Circuit: SKY130 library cell nand2_4 A_to_Y__B=1

option SCALE: Scale is set to 1e-06 for instance and model parameters
Doing analysis at TEMP = 18.699073 and TNOM = 27.000000

Using KLU as Direct Linear Solver
 Reference value :  1.62964e-08
 Reference value :  6.20450e-08
 Reference value :  1.08322e-07
 Reference value :  1.51882e-07
 Reference value :  2.01600e-07
 Reference value :  2.45110e-07
 Reference value :  2.92482e-07
 Reference value :  3.37937e-07
No. of Data Rows : 68030

  Measurements for Transient Analysis

tphl                =  3.25166e-10 targ=  2.75264e-08 trig=  2.72012e-08
tplh                =  1.46073e-09 targ=  1.05064e-07 trig=  1.03604e-07
i_vdd_avg           =  -2.31508e-06 from=  1.00000e-08 to=  3.30002e-07
power_avg_uw        =  4.05887e+00


Total analysis time (seconds) = 1.87488

Total elapsed time (seconds) = 2.029 

Total DRAM available = 16384.000 MB.
DRAM currently available =  117.547 MB.
Maximum ngspice program size =   27.625 MB.
Current ngspice program size =   27.625 MB.

