
Note: Compatibility modes selected: hs a


Circuit: SKY130 library cell aoi21_4 A1_to_Y__A2=1,B1=0

option SCALE: Scale is set to 1e-06 for instance and model parameters
Doing analysis at TEMP = 17.302338 and TNOM = 27.000000

Using KLU as Direct Linear Solver
 Reference value :  7.41640e-09
 Reference value :  3.48457e-08
 Reference value :  6.27357e-08
 Reference value :  9.07307e-08
 Reference value :  1.18797e-07
 Reference value :  1.48012e-07
 Reference value :  1.76282e-07
 Reference value :  2.04841e-07
 Reference value :  2.34186e-07
 Reference value :  2.62647e-07
 Reference value :  2.90652e-07
 Reference value :  3.18862e-07
No. of Data Rows : 68034

  Measurements for Transient Analysis

tphl                =  8.99372e-11 targ=  2.41115e-08 trig=  2.40216e-08
tplh                =  2.36407e-10 targ=  9.43011e-08 trig=  9.40647e-08
i_vdd_avg           =  -6.39620e-07 from=  1.00000e-08 to=  3.30002e-07
power_avg_uw        =  1.23864e+00


Total analysis time (seconds) = 3.05327

Total elapsed time (seconds) = 3.232 

Total DRAM available = 16384.000 MB.
DRAM currently available =  116.766 MB.
Maximum ngspice program size =   26.859 MB.
Current ngspice program size =   26.859 MB.

