
Note: Compatibility modes selected: hs a


Circuit: SKY130 library cell oai21_4 A1_to_Y__A2=0,B1=1

option SCALE: Scale is set to 1e-06 for instance and model parameters
Doing analysis at TEMP = 92.269525 and TNOM = 27.000000

Using KLU as Direct Linear Solver
 Reference value :  5.85140e-09
 Reference value :  2.99546e-08
 Reference value :  5.39846e-08
 Reference value :  7.69796e-08
 Reference value :  1.02797e-07
 Reference value :  1.27337e-07
 Reference value :  1.50772e-07
 Reference value :  1.77077e-07
 Reference value :  2.02870e-07
 Reference value :  2.29210e-07
 Reference value :  2.57080e-07
 Reference value :  2.81862e-07
 Reference value :  3.05942e-07
 Reference value :  3.32212e-07
No. of Data Rows : 68030

  Measurements for Transient Analysis

tphl                =  8.59180e-10 targ=  2.67452e-08 trig=  2.58861e-08
tplh                =  1.61165e-09 targ=  1.01270e-07 trig=  9.96582e-08
i_vdd_avg           =  -2.11045e-06 from=  1.00000e-08 to=  3.30002e-07
power_avg_uw        =  3.46878e+00


Total analysis time (seconds) = 3.73624

Total elapsed time (seconds) = 3.969 

Total DRAM available = 16384.000 MB.
DRAM currently available =  217.016 MB.
Maximum ngspice program size =   28.812 MB.
Current ngspice program size =   28.812 MB.

