
Note: Compatibility modes selected: hs a


Circuit: SKY130 library cell oai21_4 A1_to_Y__A2=0,B1=1

option SCALE: Scale is set to 1e-06 for instance and model parameters
Doing analysis at TEMP = 28.990374 and TNOM = 27.000000

Using KLU as Direct Linear Solver
 Reference value :  8.22640e-09
 Reference value :  3.82815e-08
 Reference value :  6.54465e-08
 Reference value :  9.16715e-08
 Reference value :  1.20876e-07
 Reference value :  1.45886e-07
 Reference value :  1.73676e-07
 Reference value :  2.01907e-07
 Reference value :  2.30092e-07
 Reference value :  2.57847e-07
 Reference value :  2.84331e-07
 Reference value :  3.11976e-07
No. of Data Rows : 68032

  Measurements for Transient Analysis

tphl                =  3.87205e-10 targ=  2.68467e-08 trig=  2.64595e-08
tplh                =  1.20661e-09 targ=  1.02585e-07 trig=  1.01379e-07
i_vdd_avg           =  -7.46206e-07 from=  1.00000e-08 to=  3.30001e-07
power_avg_uw        =  1.28765e+00


Total analysis time (seconds) = 3.28137

Total elapsed time (seconds) = 3.455 

Total DRAM available = 16384.000 MB.
DRAM currently available =  121.891 MB.
Maximum ngspice program size =   27.188 MB.
Current ngspice program size =   27.188 MB.

