Note: Starting dynamic gmin stepping
Note: Dynamic gmin stepping completed

Note: Compatibility modes selected: hs a


Circuit: SKY130 library cell mux2_1 A0_to_X__A1=0,S=0

option SCALE: Scale is set to 1e-06 for instance and model parameters
Doing analysis at TEMP = -34.498397 and TNOM = 27.000000

Using KLU as Direct Linear Solver
 Reference value :  1.24714e-08
 Reference value :  6.66988e-08
 Reference value :  1.18995e-07
 Reference value :  1.71155e-07
 Reference value :  2.22764e-07
 Reference value :  2.76505e-07
 Reference value :  3.26550e-07
No. of Data Rows : 68030

  Measurements for Transient Analysis

tplh                =  3.79788e-10 targ=  2.44329e-08 trig=  2.40531e-08
tphl                =  2.81128e-10 targ=  9.44406e-08 trig=  9.41594e-08
i_vdd_avg           =  -5.66069e-07 from=  1.00000e-08 to=  3.30000e-07
power_avg_uw        =  9.51473e-01


Total analysis time (seconds) = 1.68448

Total elapsed time (seconds) = 1.878 

Total DRAM available = 16384.000 MB.
DRAM currently available =  137.578 MB.
Maximum ngspice program size =   27.125 MB.
Current ngspice program size =   27.125 MB.

