
Note: Compatibility modes selected: hs a


Circuit: SKY130 library cell mux2_4 A0_to_X__A1=0,S=0

option SCALE: Scale is set to 1e-06 for instance and model parameters
Doing analysis at TEMP = 50.465936 and TNOM = 27.000000

Using KLU as Direct Linear Solver
 Reference value :  1.04714e-08
 Reference value :  4.83339e-08
 Reference value :  8.56289e-08
 Reference value :  1.22015e-07
 Reference value :  1.59025e-07
 Reference value :  1.96234e-07
 Reference value :  2.34234e-07
 Reference value :  2.71654e-07
 Reference value :  3.06680e-07
No. of Data Rows : 68030

  Measurements for Transient Analysis

tplh                =  1.02117e-09 targ=  3.01544e-08 trig=  2.91332e-08
tphl                =  1.98377e-09 targ=  1.11383e-07 trig=  1.09400e-07
i_vdd_avg           =  -2.25594e-06 from=  1.00000e-08 to=  3.30000e-07
power_avg_uw        =  4.32410e+00


Total analysis time (seconds) = 2.34244

Total elapsed time (seconds) = 2.521 

Total DRAM available = 16384.000 MB.
DRAM currently available =  161.641 MB.
Maximum ngspice program size =   24.891 MB.
Current ngspice program size =   24.891 MB.

