
Note: Compatibility modes selected: hs a


Circuit: SKY130 library cell oai21_4 A1_to_Y__A2=0,B1=1

option SCALE: Scale is set to 1e-06 for instance and model parameters
Doing analysis at TEMP = -4.180359 and TNOM = 27.000000

Using KLU as Direct Linear Solver
 Reference value :  7.86640e-09
 Reference value :  3.26224e-08
 Reference value :  6.28624e-08
 Reference value :  9.09724e-08
 Reference value :  1.18637e-07
 Reference value :  1.46692e-07
 Reference value :  1.74747e-07
 Reference value :  2.03377e-07
 Reference value :  2.31632e-07
 Reference value :  2.59312e-07
 Reference value :  2.87557e-07
 Reference value :  3.15527e-07
No. of Data Rows : 68032

  Measurements for Transient Analysis

tphl                =  2.40578e-10 targ=  2.48430e-08 trig=  2.46025e-08
tplh                =  5.74536e-10 targ=  9.63819e-08 trig=  9.58074e-08
i_vdd_avg           =  -1.05029e-06 from=  1.00000e-08 to=  3.30002e-07
power_avg_uw        =  1.99096e+00


Total analysis time (seconds) = 3.13945

Total elapsed time (seconds) = 3.323 

Total DRAM available = 16384.000 MB.
DRAM currently available =  215.891 MB.
Maximum ngspice program size =   26.000 MB.
Current ngspice program size =   26.000 MB.

