
Note: Compatibility modes selected: hs a


Circuit: SKY130 library cell mux2_1 A0_to_X__A1=0,S=0

option SCALE: Scale is set to 1e-06 for instance and model parameters
Doing analysis at TEMP = 15.827261 and TNOM = 27.000000

Using KLU as Direct Linear Solver
 Reference value :  1.89214e-08
 Reference value :  7.22294e-08
 Reference value :  1.23751e-07
 Reference value :  1.77361e-07
 Reference value :  2.31069e-07
 Reference value :  2.84216e-07
 Reference value :  3.36236e-07
No. of Data Rows : 68030

  Measurements for Transient Analysis

tplh                =  1.84302e-09 targ=  2.93390e-08 trig=  2.74960e-08
tphl                =  2.19989e-09 targ=  1.06688e-07 trig=  1.04488e-07
i_vdd_avg           =  -1.79870e-06 from=  1.00000e-08 to=  3.30001e-07
power_avg_uw        =  3.31989e+00


Total analysis time (seconds) = 1.64511

Total elapsed time (seconds) = 1.809 

Total DRAM available = 16384.000 MB.
DRAM currently available =   96.281 MB.
Maximum ngspice program size =   27.703 MB.
Current ngspice program size =   27.703 MB.

