Note: Starting dynamic gmin stepping
Note: Dynamic gmin stepping completed

Note: Compatibility modes selected: hs a


Circuit: SKY130 library cell mux2_1 A0_to_X__A1=0,S=0

option SCALE: Scale is set to 1e-06 for instance and model parameters
Doing analysis at TEMP = 4.826973 and TNOM = 27.000000

Using KLU as Direct Linear Solver
 Reference value :  1.32014e-08
 Reference value :  6.74948e-08
 Reference value :  1.17377e-07
 Reference value :  1.73237e-07
 Reference value :  2.22715e-07
 Reference value :  2.72592e-07
 Reference value :  3.22477e-07
No. of Data Rows : 68030

  Measurements for Transient Analysis

tplh                =  7.76453e-10 targ=  2.73526e-08 trig=  2.65761e-08
tphl                =  1.22114e-09 targ=  1.02950e-07 trig=  1.01728e-07
i_vdd_avg           =  -1.98108e-06 from=  1.00000e-08 to=  3.30002e-07
power_avg_uw        =  3.58739e+00


Total analysis time (seconds) = 1.69778

Total elapsed time (seconds) = 1.880 

Total DRAM available = 16384.000 MB.
DRAM currently available =  117.859 MB.
Maximum ngspice program size =   24.797 MB.
Current ngspice program size =   24.797 MB.

