
Note: Compatibility modes selected: hs a


Circuit: SKY130 library cell xor2_4 A_to_X__B=0

option SCALE: Scale is set to 1e-06 for instance and model parameters
Doing analysis at TEMP = 94.361068 and TNOM = 27.000000

Using KLU as Direct Linear Solver
 Reference value :  3.48140e-09
 Reference value :  2.10064e-08
 Reference value :  3.86532e-08
 Reference value :  5.49982e-08
 Reference value :  7.33632e-08
 Reference value :  9.13582e-08
 Reference value :  1.07059e-07
 Reference value :  1.24704e-07
 Reference value :  1.42714e-07
 Reference value :  1.59899e-07
 Reference value :  1.75934e-07
 Reference value :  1.92503e-07
 Reference value :  2.10118e-07
 Reference value :  2.26788e-07
 Reference value :  2.44368e-07
 Reference value :  2.60904e-07
 Reference value :  2.77389e-07
 Reference value :  2.95169e-07
 Reference value :  3.13774e-07
 Reference value :  3.30919e-07
No. of Data Rows : 68032

  Measurements for Transient Analysis

tplh                =  5.33085e-10 targ=  2.54934e-08 trig=  2.49604e-08
tphl                =  5.24838e-10 targ=  9.74059e-08 trig=  9.68811e-08
i_vdd_avg           =  -9.30783e-07 from=  1.00000e-08 to=  3.30004e-07
power_avg_uw        =  1.65573e+00


Total analysis time (seconds) = 5.00546

Total elapsed time (seconds) = 5.201 

Total DRAM available = 16384.000 MB.
DRAM currently available =  105.984 MB.
Maximum ngspice program size =   31.688 MB.
Current ngspice program size =   31.688 MB.

