
Note: Compatibility modes selected: hs a


Circuit: SKY130 library cell nand3_4 A_to_Y__B=1,C=1

option SCALE: Scale is set to 1e-06 for instance and model parameters
Doing analysis at TEMP = -26.767563 and TNOM = 27.000000

Using KLU as Direct Linear Solver
 Reference value :  7.52640e-09
 Reference value :  3.50916e-08
 Reference value :  6.27416e-08
 Reference value :  9.08416e-08
 Reference value :  1.18131e-07
 Reference value :  1.44291e-07
 Reference value :  1.71316e-07
 Reference value :  2.00512e-07
 Reference value :  2.28442e-07
 Reference value :  2.57652e-07
 Reference value :  2.85341e-07
 Reference value :  3.13646e-07
No. of Data Rows : 68032

  Measurements for Transient Analysis

tphl                =  1.66826e-09 targ=  2.91128e-08 trig=  2.74446e-08
tplh                =  2.64515e-09 targ=  1.06979e-07 trig=  1.04334e-07
i_vdd_avg           =  -1.90618e-06 from=  1.00000e-08 to=  3.30001e-07
power_avg_uw        =  3.33695e+00


Total analysis time (seconds) = 3.1458

Total elapsed time (seconds) = 3.323 

Total DRAM available = 16384.000 MB.
DRAM currently available =  119.000 MB.
Maximum ngspice program size =   24.094 MB.
Current ngspice program size =   24.094 MB.

