
Note: Compatibility modes selected: hs a


Circuit: SKY130 library cell nor2_4 A_to_Y__B=0

option SCALE: Scale is set to 1e-06 for instance and model parameters
Doing analysis at TEMP = 118.743000 and TNOM = 27.000000

Using KLU as Direct Linear Solver
 Reference value :  1.57014e-08
 Reference value :  6.02907e-08
 Reference value :  1.06099e-07
 Reference value :  1.50389e-07
 Reference value :  1.96421e-07
 Reference value :  2.41531e-07
 Reference value :  2.84719e-07
 Reference value :  3.28614e-07
No. of Data Rows : 68034

  Measurements for Transient Analysis

tphl                =  4.63742e-10 targ=  2.58528e-08 trig=  2.53891e-08
tplh                =  1.02956e-09 targ=  9.91968e-08 trig=  9.81673e-08
i_vdd_avg           =  -2.69945e-06 from=  1.00000e-08 to=  3.30004e-07
power_avg_uw        =  5.24697e+00


Total analysis time (seconds) = 1.92083

Total elapsed time (seconds) = 2.078 

Total DRAM available = 16384.000 MB.
DRAM currently available =  186.906 MB.
Maximum ngspice program size =   25.438 MB.
Current ngspice program size =   25.438 MB.

