
Note: Compatibility modes selected: hs a


Circuit: SKY130 library cell nand2_4 A_to_Y__B=1

option SCALE: Scale is set to 1e-06 for instance and model parameters
Doing analysis at TEMP = -12.113206 and TNOM = 27.000000

Using KLU as Direct Linear Solver
 Reference value :  1.43964e-08
 Reference value :  6.15627e-08
 Reference value :  1.08643e-07
 Reference value :  1.50613e-07
 Reference value :  1.95043e-07
 Reference value :  2.42868e-07
 Reference value :  2.88443e-07
 Reference value :  3.32778e-07
No. of Data Rows : 68032

  Measurements for Transient Analysis

tphl                =  3.22819e-10 targ=  2.55154e-08 trig=  2.51926e-08
tplh                =  8.50414e-10 targ=  9.84283e-08 trig=  9.75779e-08
i_vdd_avg           =  -1.20637e-06 from=  1.00000e-08 to=  3.30003e-07
power_avg_uw        =  1.95802e+00


Total analysis time (seconds) = 1.89814

Total elapsed time (seconds) = 2.070 

Total DRAM available = 16384.000 MB.
DRAM currently available =  126.109 MB.
Maximum ngspice program size =   25.844 MB.
Current ngspice program size =   25.844 MB.

