
Note: Compatibility modes selected: hs a


Circuit: SKY130 library cell nand3_1 A_to_Y__B=1,C=1

option SCALE: Scale is set to 1e-06 for instance and model parameters
Doing analysis at TEMP = -13.989229 and TNOM = 27.000000

Using KLU as Direct Linear Solver
 Reference value :  3.19525e-08
 Reference value :  1.29116e-07
 Reference value :  2.29984e-07
 Reference value :  3.28871e-07
No. of Data Rows : 68030

  Measurements for Transient Analysis

tphl                =  3.39307e-09 targ=  3.17140e-08 trig=  2.83209e-08
tplh                =  4.39354e-09 targ=  1.11356e-07 trig=  1.06963e-07
i_vdd_avg           =  -2.44302e-06 from=  1.00000e-08 to=  3.30001e-07
power_avg_uw        =  4.71366e+00


Total analysis time (seconds) = 0.867331

Total elapsed time (seconds) = 1.037 

Total DRAM available = 16384.000 MB.
DRAM currently available =  151.500 MB.
Maximum ngspice program size =   25.125 MB.
Current ngspice program size =   25.125 MB.

