
Note: Compatibility modes selected: hs a


Circuit: SKY130 library cell oai21_1 A1_to_Y__A2=0,B1=1

option SCALE: Scale is set to 1e-06 for instance and model parameters
Doing analysis at TEMP = 110.623590 and TNOM = 27.000000

Using KLU as Direct Linear Solver
 Reference value :  3.27125e-08
 Reference value :  1.28110e-07
 Reference value :  2.27511e-07
 Reference value :  3.29550e-07
No. of Data Rows : 68032

  Measurements for Transient Analysis

tphl                =  2.77180e-09 targ=  3.23887e-08 trig=  2.96169e-08
tplh                =  4.33275e-09 targ=  1.15183e-07 trig=  1.10851e-07
i_vdd_avg           =  -1.06188e-06 from=  1.00000e-08 to=  3.30000e-07
power_avg_uw        =  1.82714e+00


Total analysis time (seconds) = 0.873688

Total elapsed time (seconds) = 1.035 

Total DRAM available = 16384.000 MB.
DRAM currently available =  101.594 MB.
Maximum ngspice program size =   25.750 MB.
Current ngspice program size =   25.750 MB.

