
Note: Compatibility modes selected: hs a


Circuit: SKY130 library cell oai21_4 A1_to_Y__A2=0,B1=1

option SCALE: Scale is set to 1e-06 for instance and model parameters
Doing analysis at TEMP = 19.641208 and TNOM = 27.000000

Using KLU as Direct Linear Solver
 Reference value :  9.14640e-09
 Reference value :  3.66761e-08
 Reference value :  6.52911e-08
 Reference value :  9.38811e-08
 Reference value :  1.20685e-07
 Reference value :  1.46980e-07
 Reference value :  1.75050e-07
 Reference value :  2.03321e-07
 Reference value :  2.29831e-07
 Reference value :  2.59211e-07
 Reference value :  2.87220e-07
 Reference value :  3.15015e-07
No. of Data Rows : 68034

  Measurements for Transient Analysis

tphl                =  3.20441e-10 targ=  2.72372e-08 trig=  2.69168e-08
tplh                =  1.33707e-09 targ=  1.04087e-07 trig=  1.02750e-07
i_vdd_avg           =  -1.66909e-06 from=  1.00000e-08 to=  3.30005e-07
power_avg_uw        =  3.28654e+00


Total analysis time (seconds) = 3.15442

Total elapsed time (seconds) = 3.325 

Total DRAM available = 16384.000 MB.
DRAM currently available =  154.078 MB.
Maximum ngspice program size =   26.500 MB.
Current ngspice program size =   26.500 MB.

