
Note: Compatibility modes selected: hs a


Circuit: SKY130 library cell oai21_4 A1_to_Y__A2=0,B1=1

option SCALE: Scale is set to 1e-06 for instance and model parameters
Doing analysis at TEMP = -17.351737 and TNOM = 27.000000

Using KLU as Direct Linear Solver
 Reference value :  6.24640e-09
 Reference value :  3.40953e-08
 Reference value :  5.81853e-08
 Reference value :  8.37053e-08
 Reference value :  1.11103e-07
 Reference value :  1.39178e-07
 Reference value :  1.68218e-07
 Reference value :  1.96540e-07
 Reference value :  2.25285e-07
 Reference value :  2.54520e-07
 Reference value :  2.82508e-07
 Reference value :  3.10513e-07
 Reference value :  3.39118e-07
No. of Data Rows : 68034

  Measurements for Transient Analysis

tphl                =  1.42319e-09 targ=  2.86246e-08 trig=  2.72014e-08
tplh                =  2.97559e-09 targ=  1.06580e-07 trig=  1.03604e-07
i_vdd_avg           =  -2.39772e-06 from=  1.00000e-08 to=  3.30003e-07
power_avg_uw        =  4.30645e+00


Total analysis time (seconds) = 3.16233

Total elapsed time (seconds) = 3.346 

Total DRAM available = 16384.000 MB.
DRAM currently available =  233.141 MB.
Maximum ngspice program size =   28.188 MB.
Current ngspice program size =   28.188 MB.

