
Note: Compatibility modes selected: hs a


Circuit: SKY130 library cell oai21_4 A1_to_Y__A2=0,B1=1

option SCALE: Scale is set to 1e-06 for instance and model parameters
Doing analysis at TEMP = 87.577471 and TNOM = 27.000000

Using KLU as Direct Linear Solver
 Reference value :  8.43140e-09
 Reference value :  3.56104e-08
 Reference value :  6.38104e-08
 Reference value :  9.22054e-08
 Reference value :  1.21298e-07
 Reference value :  1.48993e-07
 Reference value :  1.77488e-07
 Reference value :  2.04155e-07
 Reference value :  2.33720e-07
 Reference value :  2.62508e-07
 Reference value :  2.89358e-07
 Reference value :  3.18588e-07
No. of Data Rows : 68034

  Measurements for Transient Analysis

tphl                =  7.36903e-10 targ=  2.62484e-08 trig=  2.55115e-08
tplh                =  1.23943e-09 targ=  9.97738e-08 trig=  9.85344e-08
i_vdd_avg           =  -1.50621e-06 from=  1.00000e-08 to=  3.30003e-07
power_avg_uw        =  2.75602e+00


Total analysis time (seconds) = 3.11776

Total elapsed time (seconds) = 3.294 

Total DRAM available = 16384.000 MB.
DRAM currently available =  154.078 MB.
Maximum ngspice program size =   27.109 MB.
Current ngspice program size =   27.109 MB.

