
Note: Compatibility modes selected: hs a


Circuit: SKY130 library cell xor2_1 A_to_X__B=0

option SCALE: Scale is set to 1e-06 for instance and model parameters
Doing analysis at TEMP = 74.016446 and TNOM = 27.000000

Using KLU as Direct Linear Solver
 Reference value :  1.88164e-08
 Reference value :  8.62420e-08
 Reference value :  1.50887e-07
 Reference value :  2.22372e-07
 Reference value :  2.90617e-07
No. of Data Rows : 68032

  Measurements for Transient Analysis

tplh                =  2.14586e-09 targ=  2.88581e-08 trig=  2.67123e-08
tphl                =  1.23602e-09 targ=  1.03373e-07 trig=  1.02137e-07
i_vdd_avg           =  -2.19629e-06 from=  1.00000e-08 to=  3.30002e-07
power_avg_uw        =  3.57873e+00


Total analysis time (seconds) = 1.28138

Total elapsed time (seconds) = 1.448 

Total DRAM available = 16384.000 MB.
DRAM currently available =  130.062 MB.
Maximum ngspice program size =   26.656 MB.
Current ngspice program size =   26.656 MB.

