
Note: Compatibility modes selected: hs a


Circuit: SKY130 library cell nand2_4 A_to_Y__B=1

option SCALE: Scale is set to 1e-06 for instance and model parameters
Doing analysis at TEMP = 59.409658 and TNOM = 27.000000

Using KLU as Direct Linear Solver
 Reference value :  1.20164e-08
 Reference value :  5.39975e-08
 Reference value :  1.00463e-07
 Reference value :  1.43753e-07
 Reference value :  1.89943e-07
 Reference value :  2.36303e-07
 Reference value :  2.81368e-07
 Reference value :  3.28128e-07
No. of Data Rows : 68032

  Measurements for Transient Analysis

tphl                =  2.69628e-10 targ=  2.51971e-08 trig=  2.49275e-08
tplh                =  5.63380e-10 targ=  9.73459e-08 trig=  9.67826e-08
i_vdd_avg           =  -2.12325e-06 from=  1.00000e-08 to=  3.30003e-07
power_avg_uw        =  4.06843e+00


Total analysis time (seconds) = 1.9307

Total elapsed time (seconds) = 2.100 

Total DRAM available = 16384.000 MB.
DRAM currently available =  126.109 MB.
Maximum ngspice program size =   27.797 MB.
Current ngspice program size =   27.797 MB.

