
Note: Compatibility modes selected: hs a


Circuit: SKY130 library cell nor2_1 A_to_Y__B=0

option SCALE: Scale is set to 1e-06 for instance and model parameters
Doing analysis at TEMP = 13.971614 and TNOM = 27.000000

Using KLU as Direct Linear Solver
 Reference value :  5.20343e-08
 Reference value :  1.91459e-07
No. of Data Rows : 68030

  Measurements for Transient Analysis

tphl                =  1.25274e-09 targ=  2.62986e-08 trig=  2.50459e-08
tplh                =  4.62537e-09 targ=  1.01763e-07 trig=  9.71376e-08
i_vdd_avg           =  -1.63088e-06 from=  1.00000e-08 to=  3.30001e-07
power_avg_uw        =  2.72420e+00


Total analysis time (seconds) = 0.578113

Total elapsed time (seconds) = 0.740 

Total DRAM available = 16384.000 MB.
DRAM currently available =  143.828 MB.
Maximum ngspice program size =   28.406 MB.
Current ngspice program size =   28.406 MB.

