
Note: Compatibility modes selected: hs a


Circuit: SKY130 library cell nand3_1 A_to_Y__B=1,C=1

option SCALE: Scale is set to 1e-06 for instance and model parameters
Doing analysis at TEMP = 52.223753 and TNOM = 27.000000

Using KLU as Direct Linear Solver
 Reference value :  3.36725e-08
 Reference value :  1.26530e-07
 Reference value :  2.17219e-07
 Reference value :  3.04190e-07
No. of Data Rows : 68032

  Measurements for Transient Analysis

tphl                =  3.79627e-09 targ=  3.35818e-08 trig=  2.97856e-08
tplh                =  4.52646e-09 targ=  1.15883e-07 trig=  1.11357e-07
i_vdd_avg           =  -1.52174e-06 from=  1.00000e-08 to=  3.30005e-07
power_avg_uw        =  2.73096e+00


Total analysis time (seconds) = 0.951812

Total elapsed time (seconds) = 1.126 

Total DRAM available = 16384.000 MB.
DRAM currently available =  179.109 MB.
Maximum ngspice program size =   28.000 MB.
Current ngspice program size =   28.000 MB.

