
Note: Compatibility modes selected: hs a


Circuit: SKY130 library cell xor2_4 A_to_X__B=0

option SCALE: Scale is set to 1e-06 for instance and model parameters
Doing analysis at TEMP = 14.930553 and TNOM = 27.000000

Using KLU as Direct Linear Solver
 Reference value :  4.52140e-09
 Reference value :  2.17814e-08
 Reference value :  3.90139e-08
 Reference value :  5.57589e-08
 Reference value :  7.27089e-08
 Reference value :  9.07739e-08
 Reference value :  1.08375e-07
 Reference value :  1.25540e-07
 Reference value :  1.42955e-07
 Reference value :  1.60330e-07
 Reference value :  1.77875e-07
 Reference value :  1.95629e-07
 Reference value :  2.12214e-07
 Reference value :  2.29989e-07
 Reference value :  2.47624e-07
 Reference value :  2.65429e-07
 Reference value :  2.82980e-07
 Reference value :  3.01500e-07
 Reference value :  3.18515e-07
 Reference value :  3.36420e-07
No. of Data Rows : 68030

  Measurements for Transient Analysis

tplh                =  1.11779e-09 targ=  2.81610e-08 trig=  2.70432e-08
tphl                =  1.25846e-09 targ=  1.04388e-07 trig=  1.03130e-07
i_vdd_avg           =  -2.08821e-06 from=  1.00000e-08 to=  3.30000e-07
power_avg_uw        =  3.80657e+00


Total analysis time (seconds) = 4.92575

Total elapsed time (seconds) = 5.141 

Total DRAM available = 16384.000 MB.
DRAM currently available =  138.938 MB.
Maximum ngspice program size =   28.125 MB.
Current ngspice program size =   28.125 MB.

