
Note: Compatibility modes selected: hs a


Circuit: SKY130 library cell oai21_1 A1_to_Y__A2=0,B1=1

option SCALE: Scale is set to 1e-06 for instance and model parameters
Doing analysis at TEMP = 34.521676 and TNOM = 27.000000

Using KLU as Direct Linear Solver
 Reference value :  3.51825e-08
 Reference value :  1.31634e-07
 Reference value :  2.33891e-07
 Reference value :  3.30079e-07
No. of Data Rows : 68034

  Measurements for Transient Analysis

tphl                =  2.88266e-09 targ=  3.28043e-08 trig=  2.99217e-08
tplh                =  5.60014e-09 targ=  1.17365e-07 trig=  1.11765e-07
i_vdd_avg           =  -2.28273e-06 from=  1.00000e-08 to=  3.30004e-07
power_avg_uw        =  4.51377e+00


Total analysis time (seconds) = 0.882266

Total elapsed time (seconds) = 1.043 

Total DRAM available = 16384.000 MB.
DRAM currently available =  130.250 MB.
Maximum ngspice program size =   27.344 MB.
Current ngspice program size =   27.344 MB.

