
Note: Compatibility modes selected: hs a


Circuit: SKY130 library cell nand2_1 A_to_Y__B=1

option SCALE: Scale is set to 1e-06 for instance and model parameters
Doing analysis at TEMP = -20.503729 and TNOM = 27.000000

Using KLU as Direct Linear Solver
 Reference value :  5.36330e-08
 Reference value :  2.25993e-07
No. of Data Rows : 68032

  Measurements for Transient Analysis

tphl                =  2.02423e-09 targ=  2.84720e-08 trig=  2.64477e-08
tplh                =  3.27510e-09 targ=  1.04618e-07 trig=  1.01343e-07
i_vdd_avg           =  -2.03368e-06 from=  1.00000e-08 to=  3.30003e-07
power_avg_uw        =  3.38037e+00


Total analysis time (seconds) = 0.495072

Total elapsed time (seconds) = 0.655 

Total DRAM available = 16384.000 MB.
DRAM currently available =  111.547 MB.
Maximum ngspice program size =   26.906 MB.
Current ngspice program size =   26.906 MB.

