
Note: Compatibility modes selected: hs a


Circuit: SKY130 library cell nand2_4 A_to_Y__B=1

option SCALE: Scale is set to 1e-06 for instance and model parameters
Doing analysis at TEMP = 119.032640 and TNOM = 27.000000

Using KLU as Direct Linear Solver
 Reference value :  1.22014e-08
 Reference value :  5.74995e-08
 Reference value :  1.04300e-07
 Reference value :  1.47827e-07
 Reference value :  1.96520e-07
 Reference value :  2.41245e-07
 Reference value :  2.89157e-07
 Reference value :  3.35642e-07
No. of Data Rows : 68030

  Measurements for Transient Analysis

tphl                =  -1.30715e-10 targ=  2.79178e-08 trig=  2.80485e-08
tplh                =  7.21955e-10 targ=  1.06868e-07 trig=  1.06146e-07
i_vdd_avg           =  -3.33291e-06 from=  1.00000e-08 to=  3.30002e-07
power_avg_uw        =  6.14593e+00


Total analysis time (seconds) = 1.87522

Total elapsed time (seconds) = 2.046 

Total DRAM available = 16384.000 MB.
DRAM currently available =  128.859 MB.
Maximum ngspice program size =   26.250 MB.
Current ngspice program size =   26.250 MB.

