
Note: Compatibility modes selected: hs a


Circuit: SKY130 library cell aoi21_4 A1_to_Y__A2=1,B1=0

option SCALE: Scale is set to 1e-06 for instance and model parameters
Doing analysis at TEMP = 84.827949 and TNOM = 27.000000

Using KLU as Direct Linear Solver
 Reference value :  6.97140e-09
 Reference value :  3.68212e-08
 Reference value :  6.39112e-08
 Reference value :  9.17712e-08
 Reference value :  1.19830e-07
 Reference value :  1.48410e-07
 Reference value :  1.76625e-07
 Reference value :  2.05746e-07
 Reference value :  2.34506e-07
 Reference value :  2.63186e-07
 Reference value :  2.93590e-07
 Reference value :  3.22625e-07
No. of Data Rows : 68034

  Measurements for Transient Analysis

tphl                =  3.79918e-10 targ=  2.99792e-08 trig=  2.95993e-08
tplh                =  2.10506e-09 targ=  1.12903e-07 trig=  1.10798e-07
i_vdd_avg           =  -3.01332e-06 from=  1.00000e-08 to=  3.30005e-07
power_avg_uw        =  5.10135e+00


Total analysis time (seconds) = 3.03115

Total elapsed time (seconds) = 3.210 

Total DRAM available = 16384.000 MB.
DRAM currently available =  111.078 MB.
Maximum ngspice program size =   25.906 MB.
Current ngspice program size =   25.906 MB.

