
Note: Compatibility modes selected: hs a


Circuit: SKY130 library cell xor2_4 A_to_X__B=0

option SCALE: Scale is set to 1e-06 for instance and model parameters
Doing analysis at TEMP = -10.734580 and TNOM = 27.000000

Using KLU as Direct Linear Solver
 Reference value :  3.69640e-09
 Reference value :  2.11064e-08
 Reference value :  3.83867e-08
 Reference value :  5.56567e-08
 Reference value :  7.39917e-08
 Reference value :  9.16667e-08
 Reference value :  1.08637e-07
 Reference value :  1.27021e-07
 Reference value :  1.45971e-07
 Reference value :  1.63611e-07
 Reference value :  1.81431e-07
 Reference value :  1.97422e-07
 Reference value :  2.14047e-07
 Reference value :  2.31107e-07
 Reference value :  2.48862e-07
 Reference value :  2.66797e-07
 Reference value :  2.84966e-07
 Reference value :  3.02121e-07
 Reference value :  3.20366e-07
 Reference value :  3.37521e-07
No. of Data Rows : 68032

  Measurements for Transient Analysis

tplh                =  7.43066e-11 targ=  2.96139e-08 trig=  2.95396e-08
tphl                =  1.60627e-09 targ=  1.12225e-07 trig=  1.10619e-07
i_vdd_avg           =  -6.60672e-07 from=  1.00000e-08 to=  3.30001e-07
power_avg_uw        =  1.12912e+00


Total analysis time (seconds) = 4.88416

Total elapsed time (seconds) = 5.103 

Total DRAM available = 16384.000 MB.
DRAM currently available =  123.109 MB.
Maximum ngspice program size =   28.172 MB.
Current ngspice program size =   28.172 MB.

