
Note: Compatibility modes selected: hs a


Circuit: SKY130 library cell aoi21_4 A1_to_Y__A2=1,B1=0

option SCALE: Scale is set to 1e-06 for instance and model parameters
Doing analysis at TEMP = 24.239592 and TNOM = 27.000000

Using KLU as Direct Linear Solver
 Reference value :  9.08640e-09
 Reference value :  3.63270e-08
 Reference value :  6.28420e-08
 Reference value :  9.17720e-08
 Reference value :  1.19832e-07
 Reference value :  1.47492e-07
 Reference value :  1.76417e-07
 Reference value :  2.04812e-07
 Reference value :  2.34222e-07
 Reference value :  2.62457e-07
 Reference value :  2.91277e-07
 Reference value :  3.18407e-07
No. of Data Rows : 68032

  Measurements for Transient Analysis

tphl                =  3.69739e-10 targ=  2.82495e-08 trig=  2.78798e-08
tplh                =  1.60592e-09 targ=  1.07245e-07 trig=  1.05639e-07
i_vdd_avg           =  -1.30855e-06 from=  1.00000e-08 to=  3.30002e-07
power_avg_uw        =  2.41932e+00


Total analysis time (seconds) = 3.09443

Total elapsed time (seconds) = 3.263 

Total DRAM available = 16384.000 MB.
DRAM currently available =  107.516 MB.
Maximum ngspice program size =   25.172 MB.
Current ngspice program size =   25.172 MB.

