
Note: Compatibility modes selected: hs a


Circuit: SKY130 library cell aoi21_4 A1_to_Y__A2=1,B1=0

option SCALE: Scale is set to 1e-06 for instance and model parameters
Doing analysis at TEMP = 68.902309 and TNOM = 27.000000

Using KLU as Direct Linear Solver
 Reference value :  6.55640e-09
 Reference value :  3.23649e-08
 Reference value :  6.11349e-08
 Reference value :  9.00049e-08
 Reference value :  1.19207e-07
 Reference value :  1.47802e-07
 Reference value :  1.75972e-07
 Reference value :  2.02630e-07
 Reference value :  2.31390e-07
 Reference value :  2.60062e-07
 Reference value :  2.85702e-07
 Reference value :  3.13322e-07
No. of Data Rows : 68030

  Measurements for Transient Analysis

tphl                =  1.63833e-10 targ=  2.54600e-08 trig=  2.52962e-08
tplh                =  6.17601e-10 targ=  9.85062e-08 trig=  9.78886e-08
i_vdd_avg           =  -1.20402e-06 from=  1.00000e-08 to=  3.30002e-07
power_avg_uw        =  2.17093e+00


Total analysis time (seconds) = 3.08728

Total elapsed time (seconds) = 3.268 

Total DRAM available = 16384.000 MB.
DRAM currently available =  111.078 MB.
Maximum ngspice program size =   28.625 MB.
Current ngspice program size =   28.625 MB.

