
Note: Compatibility modes selected: hs a


Circuit: SKY130 library cell oai21_4 A1_to_Y__A2=0,B1=1

option SCALE: Scale is set to 1e-06 for instance and model parameters
Doing analysis at TEMP = 112.515600 and TNOM = 27.000000

Using KLU as Direct Linear Solver
 Reference value :  3.77140e-09
 Reference value :  2.72875e-08
 Reference value :  5.12100e-08
 Reference value :  7.49150e-08
 Reference value :  1.01340e-07
 Reference value :  1.24717e-07
 Reference value :  1.50147e-07
 Reference value :  1.74992e-07
 Reference value :  2.01485e-07
 Reference value :  2.29775e-07
 Reference value :  2.55015e-07
 Reference value :  2.80467e-07
 Reference value :  3.05632e-07
 Reference value :  3.31102e-07
No. of Data Rows : 68030

  Measurements for Transient Analysis

tphl                =  1.24542e-10 targ=  2.81483e-08 trig=  2.80237e-08
tplh                =  1.30065e-09 targ=  1.07372e-07 trig=  1.06071e-07
i_vdd_avg           =  -2.81195e-06 from=  1.00000e-08 to=  3.30002e-07
power_avg_uw        =  5.01314e+00


Total analysis time (seconds) = 3.71092

Total elapsed time (seconds) = 3.978 

Total DRAM available = 16384.000 MB.
DRAM currently available =  217.016 MB.
Maximum ngspice program size =   29.406 MB.
Current ngspice program size =   29.406 MB.

