
Note: Compatibility modes selected: hs a


Circuit: SKY130 library cell aoi21_4 A1_to_Y__A2=1,B1=0

option SCALE: Scale is set to 1e-06 for instance and model parameters
Doing analysis at TEMP = 72.270522 and TNOM = 27.000000

Using KLU as Direct Linear Solver
 Reference value :  8.05640e-09
 Reference value :  3.65061e-08
 Reference value :  6.30061e-08
 Reference value :  9.13361e-08
 Reference value :  1.19150e-07
 Reference value :  1.48345e-07
 Reference value :  1.76800e-07
 Reference value :  2.04636e-07
 Reference value :  2.33541e-07
 Reference value :  2.61466e-07
 Reference value :  2.90135e-07
 Reference value :  3.18425e-07
No. of Data Rows : 68034

  Measurements for Transient Analysis

tphl                =  1.69322e-09 targ=  2.94450e-08 trig=  2.77518e-08
tplh                =  2.66445e-09 targ=  1.07920e-07 trig=  1.05255e-07
i_vdd_avg           =  -1.43745e-06 from=  1.00000e-08 to=  3.30005e-07
power_avg_uw        =  2.34023e+00


Total analysis time (seconds) = 3.04827

Total elapsed time (seconds) = 3.226 

Total DRAM available = 16384.000 MB.
DRAM currently available =  125.766 MB.
Maximum ngspice program size =   27.453 MB.
Current ngspice program size =   27.453 MB.

