
Note: Compatibility modes selected: hs a


Circuit: SKY130 library cell oai21_1 A1_to_Y__A2=0,B1=1

option SCALE: Scale is set to 1e-06 for instance and model parameters
Doing analysis at TEMP = 71.489913 and TNOM = 27.000000

Using KLU as Direct Linear Solver
 Reference value :  3.99623e-08
 Reference value :  1.40992e-07
 Reference value :  2.48357e-07
No. of Data Rows : 68032

  Measurements for Transient Analysis

tphl                =  1.76152e-09 targ=  2.87539e-08 trig=  2.69924e-08
tplh                =  3.07910e-09 targ=  1.06056e-07 trig=  1.02977e-07
i_vdd_avg           =  -1.06465e-06 from=  1.00000e-08 to=  3.30002e-07
power_avg_uw        =  1.94136e+00


Total analysis time (seconds) = 0.831288

Total elapsed time (seconds) = 0.985 

Total DRAM available = 16384.000 MB.
DRAM currently available =   90.500 MB.
Maximum ngspice program size =   26.859 MB.
Current ngspice program size =   26.859 MB.

