
Note: Compatibility modes selected: hs a


Circuit: SKY130 library cell mux2_4 A0_to_X__A1=0,S=0

option SCALE: Scale is set to 1e-06 for instance and model parameters
Doing analysis at TEMP = 21.362297 and TNOM = 27.000000

Using KLU as Direct Linear Solver
 Reference value :  1.10714e-08
 Reference value :  4.70045e-08
 Reference value :  8.38845e-08
 Reference value :  1.20146e-07
 Reference value :  1.56676e-07
 Reference value :  1.91188e-07
 Reference value :  2.26994e-07
 Reference value :  2.64354e-07
 Reference value :  2.99516e-07
 Reference value :  3.33971e-07
No. of Data Rows : 68030

  Measurements for Transient Analysis

tplh                =  1.09307e-10 targ=  2.90153e-08 trig=  2.89060e-08
tphl                =  1.47376e-09 targ=  1.10192e-07 trig=  1.08718e-07
i_vdd_avg           =  -1.22050e-06 from=  1.00000e-08 to=  3.30001e-07
power_avg_uw        =  2.40226e+00


Total analysis time (seconds) = 2.41043

Total elapsed time (seconds) = 2.581 

Total DRAM available = 16384.000 MB.
DRAM currently available =  134.594 MB.
Maximum ngspice program size =   24.109 MB.
Current ngspice program size =   24.109 MB.

