
Note: Compatibility modes selected: hs a


Circuit: SKY130 library cell nor2_4 A_to_Y__B=0

option SCALE: Scale is set to 1e-06 for instance and model parameters
Doing analysis at TEMP = -23.310733 and TNOM = 27.000000

Using KLU as Direct Linear Solver
 Reference value :  1.26764e-08
 Reference value :  5.74270e-08
 Reference value :  1.00952e-07
 Reference value :  1.45217e-07
 Reference value :  1.89898e-07
 Reference value :  2.33622e-07
 Reference value :  2.78027e-07
 Reference value :  3.21877e-07
No. of Data Rows : 68032

  Measurements for Transient Analysis

tphl                =  3.52979e-10 targ=  2.86327e-08 trig=  2.82798e-08
tplh                =  1.64162e-09 targ=  1.08481e-07 trig=  1.06839e-07
i_vdd_avg           =  -2.26053e-07 from=  1.00000e-08 to=  3.30002e-07
power_avg_uw        =  4.05718e-01


Total analysis time (seconds) = 1.95345

Total elapsed time (seconds) = 2.119 

Total DRAM available = 16384.000 MB.
DRAM currently available =  135.641 MB.
Maximum ngspice program size =   26.609 MB.
Current ngspice program size =   26.609 MB.

