
Note: Compatibility modes selected: hs a


Circuit: SKY130 library cell inv_4 A_to_Y

option SCALE: Scale is set to 1e-06 for instance and model parameters
Doing analysis at TEMP = 93.927297 and TNOM = 27.000000

Using KLU as Direct Linear Solver
 Reference value :  4.47787e-08
 Reference value :  1.46475e-07
 Reference value :  2.39139e-07
 Reference value :  3.30370e-07
No. of Data Rows : 68032

  Measurements for Transient Analysis

tphl                =  2.76983e-10 targ=  2.92026e-08 trig=  2.89256e-08
tplh                =  1.45166e-09 targ=  1.10229e-07 trig=  1.08777e-07
i_vdd_avg           =  -2.59086e-06 from=  1.00000e-08 to=  3.30005e-07
power_avg_uw        =  4.91270e+00


Total analysis time (seconds) = 0.888938

Total elapsed time (seconds) = 1.031 

Total DRAM available = 16384.000 MB.
DRAM currently available =  146.531 MB.
Maximum ngspice program size =   25.672 MB.
Current ngspice program size =   25.672 MB.

