
Note: Compatibility modes selected: hs a


Circuit: SKY130 library cell aoi21_4 A1_to_Y__A2=1,B1=0

option SCALE: Scale is set to 1e-06 for instance and model parameters
Doing analysis at TEMP = 109.112000 and TNOM = 27.000000

Using KLU as Direct Linear Solver
 Reference value :  7.03640e-09
 Reference value :  3.52643e-08
 Reference value :  6.51343e-08
 Reference value :  9.38593e-08
 Reference value :  1.21376e-07
 Reference value :  1.49936e-07
 Reference value :  1.80471e-07
 Reference value :  2.09649e-07
 Reference value :  2.38759e-07
 Reference value :  2.67621e-07
 Reference value :  2.97211e-07
 Reference value :  3.24111e-07
No. of Data Rows : 68030

  Measurements for Transient Analysis

tphl                =  3.28060e-10 targ=  2.51715e-08 trig=  2.48434e-08
tplh                =  4.60246e-10 targ=  9.69905e-08 trig=  9.65303e-08
i_vdd_avg           =  -3.93868e-07 from=  1.00000e-08 to=  3.30001e-07
power_avg_uw        =  7.02561e-01


Total analysis time (seconds) = 2.98816

Total elapsed time (seconds) = 3.166 

Total DRAM available = 16384.000 MB.
DRAM currently available =   99.500 MB.
Maximum ngspice program size =   26.359 MB.
Current ngspice program size =   26.359 MB.

