
Note: Compatibility modes selected: hs a


Circuit: SKY130 library cell nor2_4 A_to_Y__B=0

option SCALE: Scale is set to 1e-06 for instance and model parameters
Doing analysis at TEMP = -15.375047 and TNOM = 27.000000

Using KLU as Direct Linear Solver
 Reference value :  1.43564e-08
 Reference value :  5.90341e-08
 Reference value :  1.03224e-07
 Reference value :  1.46671e-07
 Reference value :  1.91099e-07
 Reference value :  2.32984e-07
 Reference value :  2.80056e-07
 Reference value :  3.23226e-07
No. of Data Rows : 68030

  Measurements for Transient Analysis

tphl                =  1.23519e-09 targ=  2.87510e-08 trig=  2.75158e-08
tplh                =  2.84496e-09 targ=  1.07392e-07 trig=  1.04547e-07
i_vdd_avg           =  -1.37590e-06 from=  1.00000e-08 to=  3.30001e-07
power_avg_uw        =  2.34961e+00


Total analysis time (seconds) = 1.97393

Total elapsed time (seconds) = 2.133 

Total DRAM available = 16384.000 MB.
DRAM currently available =  103.453 MB.
Maximum ngspice program size =   25.656 MB.
Current ngspice program size =   25.656 MB.

