
Note: Compatibility modes selected: hs a


Circuit: SKY130 library cell xor2_1 A_to_X__B=0

option SCALE: Scale is set to 1e-06 for instance and model parameters
Doing analysis at TEMP = 106.039620 and TNOM = 27.000000

Using KLU as Direct Linear Solver
 Reference value :  2.97425e-08
 Reference value :  9.82149e-08
 Reference value :  1.63492e-07
 Reference value :  2.35945e-07
 Reference value :  3.00992e-07
No. of Data Rows : 68030

  Measurements for Transient Analysis

tplh                =  1.39989e-09 targ=  2.92511e-08 trig=  2.78512e-08
tphl                =  1.18479e-09 targ=  1.06738e-07 trig=  1.05554e-07
i_vdd_avg           =  -1.50751e-06 from=  1.00000e-08 to=  3.30002e-07
power_avg_uw        =  2.69205e+00


Total analysis time (seconds) = 1.26056

Total elapsed time (seconds) = 1.414 

Total DRAM available = 16384.000 MB.
DRAM currently available =  128.406 MB.
Maximum ngspice program size =   25.516 MB.
Current ngspice program size =   25.516 MB.

