
Note: Compatibility modes selected: hs a


Circuit: SKY130 library cell nor2_4 A_to_Y__B=0

option SCALE: Scale is set to 1e-06 for instance and model parameters
Doing analysis at TEMP = 29.372341 and TNOM = 27.000000

Using KLU as Direct Linear Solver
 Reference value :  1.54814e-08
 Reference value :  6.15666e-08
 Reference value :  1.07646e-07
 Reference value :  1.52061e-07
 Reference value :  1.96592e-07
 Reference value :  2.40717e-07
 Reference value :  2.85751e-07
 Reference value :  3.33096e-07
No. of Data Rows : 68032

  Measurements for Transient Analysis

tphl                =  -1.85986e-10 targ=  2.62986e-08 trig=  2.64846e-08
tplh                =  7.79549e-10 targ=  1.02233e-07 trig=  1.01454e-07
i_vdd_avg           =  -1.05696e-06 from=  1.00000e-08 to=  3.30001e-07
power_avg_uw        =  1.93503e+00


Total analysis time (seconds) = 1.8992

Total elapsed time (seconds) = 2.058 

Total DRAM available = 16384.000 MB.
DRAM currently available =  103.906 MB.
Maximum ngspice program size =   26.500 MB.
Current ngspice program size =   26.500 MB.

