
Note: Compatibility modes selected: hs a


Circuit: SKY130 library cell nor2_4 A_to_Y__B=0

option SCALE: Scale is set to 1e-06 for instance and model parameters
Doing analysis at TEMP = 87.140969 and TNOM = 27.000000

Using KLU as Direct Linear Solver
 Reference value :  1.46264e-08
 Reference value :  5.85940e-08
 Reference value :  1.03010e-07
 Reference value :  1.47165e-07
 Reference value :  1.91839e-07
 Reference value :  2.35619e-07
 Reference value :  2.78050e-07
 Reference value :  3.22040e-07
No. of Data Rows : 68030

  Measurements for Transient Analysis

tphl                =  -9.91740e-11 targ=  2.50241e-08 trig=  2.51232e-08
tplh                =  2.55399e-10 targ=  9.76251e-08 trig=  9.73697e-08
i_vdd_avg           =  -6.35874e-07 from=  1.00000e-08 to=  3.30000e-07
power_avg_uw        =  1.16362e+00


Total analysis time (seconds) = 1.96024

Total elapsed time (seconds) = 2.116 

Total DRAM available = 16384.000 MB.
DRAM currently available =  123.125 MB.
Maximum ngspice program size =   25.984 MB.
Current ngspice program size =   25.984 MB.

