
Note: Compatibility modes selected: hs a


Circuit: SKY130 library cell inv_4 A_to_Y

option SCALE: Scale is set to 1e-06 for instance and model parameters
Doing analysis at TEMP = 44.397159 and TNOM = 27.000000

Using KLU as Direct Linear Solver
 Reference value :  3.83017e-08
 Reference value :  1.25621e-07
 Reference value :  2.14897e-07
 Reference value :  3.05451e-07
No. of Data Rows : 68032

  Measurements for Transient Analysis

tphl                =  2.26085e-10 targ=  2.56832e-08 trig=  2.54571e-08
tplh                =  8.12758e-10 targ=  9.91841e-08 trig=  9.83714e-08
i_vdd_avg           =  -2.16798e-06 from=  1.00000e-08 to=  3.30001e-07
power_avg_uw        =  3.94500e+00


Total analysis time (seconds) = 0.949777

Total elapsed time (seconds) = 1.095 

Total DRAM available = 16384.000 MB.
DRAM currently available =  120.656 MB.
Maximum ngspice program size =   25.516 MB.
Current ngspice program size =   25.516 MB.

