
Note: Compatibility modes selected: hs a


Circuit: SKY130 library cell nand2_1 A_to_Y__B=1

option SCALE: Scale is set to 1e-06 for instance and model parameters
Doing analysis at TEMP = 60.215206 and TNOM = 27.000000

Using KLU as Direct Linear Solver
 Reference value :  6.40923e-08
 Reference value :  2.31677e-07
No. of Data Rows : 68032

  Measurements for Transient Analysis

tphl                =  1.50928e-09 targ=  2.81317e-08 trig=  2.66224e-08
tplh                =  2.41914e-09 targ=  1.04286e-07 trig=  1.01867e-07
i_vdd_avg           =  -2.23520e-06 from=  1.00000e-08 to=  3.30002e-07
power_avg_uw        =  3.86004e+00


Total analysis time (seconds) = 0.526984

Total elapsed time (seconds) = 0.676 

Total DRAM available = 16384.000 MB.
DRAM currently available =  102.344 MB.
Maximum ngspice program size =   26.125 MB.
Current ngspice program size =   26.125 MB.

