
Note: Compatibility modes selected: hs a


Circuit: SKY130 library cell nor2_4 A_to_Y__B=0

option SCALE: Scale is set to 1e-06 for instance and model parameters
Doing analysis at TEMP = 58.932989 and TNOM = 27.000000

Using KLU as Direct Linear Solver
 Reference value :  1.57464e-08
 Reference value :  6.05032e-08
 Reference value :  1.09074e-07
 Reference value :  1.50899e-07
 Reference value :  1.92803e-07
 Reference value :  2.40298e-07
 Reference value :  2.84449e-07
 Reference value :  3.30679e-07
No. of Data Rows : 68032

  Measurements for Transient Analysis

tphl                =  1.40712e-11 targ=  2.73119e-08 trig=  2.72978e-08
tplh                =  8.70178e-10 targ=  1.04764e-07 trig=  1.03894e-07
i_vdd_avg           =  -5.12566e-07 from=  1.00000e-08 to=  3.30004e-07
power_avg_uw        =  8.96562e-01


Total analysis time (seconds) = 1.92222

Total elapsed time (seconds) = 2.075 

Total DRAM available = 16384.000 MB.
DRAM currently available =  103.453 MB.
Maximum ngspice program size =   26.875 MB.
Current ngspice program size =   26.875 MB.

