
Note: Compatibility modes selected: hs a


Circuit: SKY130 library cell mux2_4 A0_to_X__A1=0,S=0

option SCALE: Scale is set to 1e-06 for instance and model parameters
Doing analysis at TEMP = 73.513117 and TNOM = 27.000000

Using KLU as Direct Linear Solver
 Reference value :  1.13364e-08
 Reference value :  4.70964e-08
 Reference value :  8.16364e-08
 Reference value :  1.18440e-07
 Reference value :  1.54335e-07
 Reference value :  1.91411e-07
 Reference value :  2.26056e-07
 Reference value :  2.60726e-07
 Reference value :  2.97495e-07
 Reference value :  3.35365e-07
No. of Data Rows : 68032

  Measurements for Transient Analysis

tplh                =  1.54865e-10 targ=  2.59543e-08 trig=  2.57995e-08
tphl                =  7.12793e-10 targ=  1.00111e-07 trig=  9.93984e-08
i_vdd_avg           =  -1.51573e-06 from=  1.00000e-08 to=  3.30000e-07
power_avg_uw        =  2.89250e+00


Total analysis time (seconds) = 2.41093

Total elapsed time (seconds) = 2.581 

Total DRAM available = 16384.000 MB.
DRAM currently available =  214.609 MB.
Maximum ngspice program size =   25.109 MB.
Current ngspice program size =   25.109 MB.

