
Note: Compatibility modes selected: hs a


Circuit: SKY130 library cell xor2_1 A_to_X__B=0

option SCALE: Scale is set to 1e-06 for instance and model parameters
Doing analysis at TEMP = 55.930106 and TNOM = 27.000000

Using KLU as Direct Linear Solver
 Reference value :  2.02264e-08
 Reference value :  8.85475e-08
 Reference value :  1.57627e-07
 Reference value :  2.28012e-07
 Reference value :  2.98732e-07
No. of Data Rows : 68032

  Measurements for Transient Analysis

tplh                =  1.13775e-09 targ=  2.72453e-08 trig=  2.61075e-08
tphl                =  8.95595e-10 targ=  1.01218e-07 trig=  1.00322e-07
i_vdd_avg           =  -6.94452e-07 from=  1.00000e-08 to=  3.30002e-07
power_avg_uw        =  1.30709e+00


Total analysis time (seconds) = 1.26872

Total elapsed time (seconds) = 1.424 

Total DRAM available = 16384.000 MB.
DRAM currently available =  118.609 MB.
Maximum ngspice program size =   25.781 MB.
Current ngspice program size =   25.781 MB.

