
Note: Compatibility modes selected: hs a


Circuit: SKY130 library cell nor2_4 A_to_Y__B=0

option SCALE: Scale is set to 1e-06 for instance and model parameters
Doing analysis at TEMP = -33.875659 and TNOM = 27.000000

Using KLU as Direct Linear Solver
 Reference value :  1.46164e-08
 Reference value :  6.12807e-08
 Reference value :  1.03051e-07
 Reference value :  1.50184e-07
 Reference value :  1.93901e-07
 Reference value :  2.37536e-07
 Reference value :  2.80214e-07
 Reference value :  3.25129e-07
No. of Data Rows : 68034

  Measurements for Transient Analysis

tphl                =  -8.99000e-11 targ=  2.80267e-08 trig=  2.81166e-08
tplh                =  1.86463e-09 targ=  1.08214e-07 trig=  1.06350e-07
i_vdd_avg           =  -7.85952e-07 from=  1.00000e-08 to=  3.30004e-07
power_avg_uw        =  1.30307e+00


Total analysis time (seconds) = 1.94162

Total elapsed time (seconds) = 2.097 

Total DRAM available = 16384.000 MB.
DRAM currently available =  103.906 MB.
Maximum ngspice program size =   24.906 MB.
Current ngspice program size =   24.906 MB.

