
Note: Compatibility modes selected: hs a


Circuit: SKY130 library cell inv_1 A_to_Y

option SCALE: Scale is set to 1e-06 for instance and model parameters
Doing analysis at TEMP = 9.060575 and TNOM = 27.000000

Using KLU as Direct Linear Solver
 Reference value :  1.09574e-07
No. of Data Rows : 68032

  Measurements for Transient Analysis

tphl                =  8.21488e-10 targ=  2.69319e-08 trig=  2.61104e-08
tplh                =  1.94133e-09 targ=  1.02272e-07 trig=  1.00331e-07
i_vdd_avg           =  -1.51813e-06 from=  1.00000e-08 to=  3.30004e-07
power_avg_uw        =  2.63387e+00


Total analysis time (seconds) = 0.324312

Total elapsed time (seconds) = 0.469 

Total DRAM available = 16384.000 MB.
DRAM currently available =  199.781 MB.
Maximum ngspice program size =   24.141 MB.
Current ngspice program size =   24.141 MB.

