
Note: Compatibility modes selected: hs a


Circuit: SKY130 library cell xor2_1 A_to_X__B=0

option SCALE: Scale is set to 1e-06 for instance and model parameters
Doing analysis at TEMP = 32.653139 and TNOM = 27.000000

Using KLU as Direct Linear Solver
 Reference value :  2.17814e-08
 Reference value :  8.84363e-08
 Reference value :  1.59085e-07
 Reference value :  2.30481e-07
 Reference value :  3.00115e-07
No. of Data Rows : 68032

  Measurements for Transient Analysis

tplh                =  1.72042e-09 targ=  2.82698e-08 trig=  2.65494e-08
tphl                =  1.20120e-09 targ=  1.02849e-07 trig=  1.01648e-07
i_vdd_avg           =  -9.89938e-07 from=  1.00000e-08 to=  3.30000e-07
power_avg_uw        =  1.62270e+00


Total analysis time (seconds) = 1.22871

Total elapsed time (seconds) = 1.405 

Total DRAM available = 16384.000 MB.
DRAM currently available =  128.406 MB.
Maximum ngspice program size =   26.766 MB.
Current ngspice program size =   26.766 MB.

