
Note: Compatibility modes selected: hs a


Circuit: SKY130 library cell oai21_1 A1_to_Y__A2=0,B1=1

option SCALE: Scale is set to 1e-06 for instance and model parameters
Doing analysis at TEMP = 44.231044 and TNOM = 27.000000

Using KLU as Direct Linear Solver
 Reference value :  3.46639e-08
 Reference value :  1.33800e-07
 Reference value :  2.31249e-07
 Reference value :  3.32905e-07
No. of Data Rows : 68030

  Measurements for Transient Analysis

tphl                =  3.92700e-10 targ=  2.47359e-08 trig=  2.43432e-08
tplh                =  8.45837e-10 targ=  9.58754e-08 trig=  9.50295e-08
i_vdd_avg           =  -4.38759e-07 from=  1.00000e-08 to=  3.30000e-07
power_avg_uw        =  8.20517e-01


Total analysis time (seconds) = 0.864252

Total elapsed time (seconds) = 1.027 

Total DRAM available = 16384.000 MB.
DRAM currently available =  130.250 MB.
Maximum ngspice program size =   26.453 MB.
Current ngspice program size =   26.453 MB.

