
Note: Compatibility modes selected: hs a


Circuit: SKY130 library cell mux2_4 A0_to_X__A1=0,S=0

option SCALE: Scale is set to 1e-06 for instance and model parameters
Doing analysis at TEMP = 13.536728 and TNOM = 27.000000

Using KLU as Direct Linear Solver
 Reference value :  8.71640e-09
 Reference value :  4.25186e-08
 Reference value :  8.00336e-08
 Reference value :  1.15745e-07
 Reference value :  1.52780e-07
 Reference value :  1.88043e-07
 Reference value :  2.25574e-07
 Reference value :  2.61099e-07
 Reference value :  2.96675e-07
 Reference value :  3.33050e-07
No. of Data Rows : 68032

  Measurements for Transient Analysis

tplh                =  1.70686e-09 targ=  2.95299e-08 trig=  2.78230e-08
tphl                =  2.55183e-09 targ=  1.08021e-07 trig=  1.05469e-07
i_vdd_avg           =  -2.11529e-06 from=  1.00000e-08 to=  3.30005e-07
power_avg_uw        =  3.54608e+00


Total analysis time (seconds) = 2.4168

Total elapsed time (seconds) = 2.596 

Total DRAM available = 16384.000 MB.
DRAM currently available =  172.859 MB.
Maximum ngspice program size =   27.859 MB.
Current ngspice program size =   27.859 MB.

