
Note: Compatibility modes selected: hs a


Circuit: SKY130 library cell inv_1 A_to_Y

option SCALE: Scale is set to 1e-06 for instance and model parameters
Doing analysis at TEMP = 120.919810 and TNOM = 27.000000

Using KLU as Direct Linear Solver
 Reference value :  1.09550e-07
No. of Data Rows : 68032

  Measurements for Transient Analysis

tphl                =  3.65725e-10 targ=  2.48238e-08 trig=  2.44581e-08
tplh                =  5.08298e-10 targ=  9.58826e-08 trig=  9.53743e-08
i_vdd_avg           =  -3.21552e-07 from=  1.00000e-08 to=  3.30005e-07
power_avg_uw        =  5.67713e-01


Total analysis time (seconds) = 0.341232

Total elapsed time (seconds) = 0.477 

Total DRAM available = 16384.000 MB.
DRAM currently available =  203.391 MB.
Maximum ngspice program size =   24.672 MB.
Current ngspice program size =   24.672 MB.

