
Note: Compatibility modes selected: hs a


Circuit: SKY130 library cell nand2_4 A_to_Y__B=1

option SCALE: Scale is set to 1e-06 for instance and model parameters
Doing analysis at TEMP = -25.134667 and TNOM = 27.000000

Using KLU as Direct Linear Solver
 Reference value :  1.72414e-08
 Reference value :  6.45115e-08
 Reference value :  1.11196e-07
 Reference value :  1.58500e-07
 Reference value :  2.04286e-07
 Reference value :  2.50601e-07
 Reference value :  3.00335e-07
No. of Data Rows : 68032

  Measurements for Transient Analysis

tphl                =  -5.27664e-10 targ=  2.93793e-08 trig=  2.99070e-08
tplh                =  1.67270e-09 targ=  1.13394e-07 trig=  1.11721e-07
i_vdd_avg           =  -2.09476e-06 from=  1.00000e-08 to=  3.30000e-07
power_avg_uw        =  3.93028e+00


Total analysis time (seconds) = 1.86258

Total elapsed time (seconds) = 2.007 

Total DRAM available = 16384.000 MB.
DRAM currently available =   95.531 MB.
Maximum ngspice program size =   25.969 MB.
Current ngspice program size =   25.969 MB.

