
Note: Compatibility modes selected: hs a


Circuit: SKY130 library cell nand2_1 A_to_Y__B=1

option SCALE: Scale is set to 1e-06 for instance and model parameters
Doing analysis at TEMP = -29.530460 and TNOM = 27.000000

Using KLU as Direct Linear Solver
 Reference value :  5.02778e-08
 Reference value :  2.16218e-07
No. of Data Rows : 68032

  Measurements for Transient Analysis

tphl                =  7.04755e-10 targ=  2.76449e-08 trig=  2.69401e-08
tplh                =  1.80079e-09 targ=  1.04621e-07 trig=  1.02820e-07
i_vdd_avg           =  -5.73977e-07 from=  1.00000e-08 to=  3.30003e-07
power_avg_uw        =  1.06661e+00


Total analysis time (seconds) = 0.554522

Total elapsed time (seconds) = 0.696 

Total DRAM available = 16384.000 MB.
DRAM currently available =  126.391 MB.
Maximum ngspice program size =   25.234 MB.
Current ngspice program size =   25.234 MB.

