
Note: Compatibility modes selected: hs a


Circuit: SKY130 library cell aoi21_4 A1_to_Y__A2=1,B1=0

option SCALE: Scale is set to 1e-06 for instance and model parameters
Doing analysis at TEMP = 13.147266 and TNOM = 27.000000

Using KLU as Direct Linear Solver
 Reference value :  5.58640e-09
 Reference value :  3.50205e-08
 Reference value :  6.41905e-08
 Reference value :  9.18655e-08
 Reference value :  1.20214e-07
 Reference value :  1.48624e-07
 Reference value :  1.76604e-07
 Reference value :  2.05251e-07
 Reference value :  2.32936e-07
 Reference value :  2.59829e-07
 Reference value :  2.86594e-07
 Reference value :  3.14339e-07
No. of Data Rows : 68034

  Measurements for Transient Analysis

tphl                =  1.76280e-10 targ=  2.49528e-08 trig=  2.47765e-08
tplh                =  5.58864e-10 targ=  9.68884e-08 trig=  9.63296e-08
i_vdd_avg           =  -1.25910e-06 from=  1.00000e-08 to=  3.30004e-07
power_avg_uw        =  2.35494e+00


Total analysis time (seconds) = 3.08107

Total elapsed time (seconds) = 3.275 

Total DRAM available = 16384.000 MB.
DRAM currently available =  115.594 MB.
Maximum ngspice program size =   30.750 MB.
Current ngspice program size =   30.750 MB.

