
Note: Compatibility modes selected: hs a


Circuit: SKY130 library cell inv_4 A_to_Y

option SCALE: Scale is set to 1e-06 for instance and model parameters
Doing analysis at TEMP = 37.623468 and TNOM = 27.000000

Using KLU as Direct Linear Solver
 Reference value :  3.31642e-08
 Reference value :  1.26041e-07
 Reference value :  2.22159e-07
 Reference value :  3.12601e-07
No. of Data Rows : 68030

  Measurements for Transient Analysis

tphl                =  7.01577e-11 targ=  2.49360e-08 trig=  2.48659e-08
tplh                =  3.22774e-10 targ=  9.69204e-08 trig=  9.65976e-08
i_vdd_avg           =  -2.80470e-07 from=  1.00000e-08 to=  3.30001e-07
power_avg_uw        =  5.01191e-01


Total analysis time (seconds) = 0.932976

Total elapsed time (seconds) = 1.083 

Total DRAM available = 16384.000 MB.
DRAM currently available =  135.562 MB.
Maximum ngspice program size =   26.391 MB.
Current ngspice program size =   26.391 MB.

