
Note: Compatibility modes selected: hs a


Circuit: SKY130 library cell nand3_4 A_to_Y__B=1,C=1

option SCALE: Scale is set to 1e-06 for instance and model parameters
Doing analysis at TEMP = 56.165644 and TNOM = 27.000000

Using KLU as Direct Linear Solver
 Reference value :  9.54140e-09
 Reference value :  3.66265e-08
 Reference value :  6.22765e-08
 Reference value :  9.08115e-08
 Reference value :  1.17920e-07
 Reference value :  1.48130e-07
 Reference value :  1.76630e-07
 Reference value :  2.05541e-07
 Reference value :  2.34541e-07
 Reference value :  2.63115e-07
 Reference value :  2.91890e-07
 Reference value :  3.19815e-07
No. of Data Rows : 68032

  Measurements for Transient Analysis

tphl                =  5.16272e-10 targ=  2.47283e-08 trig=  2.42120e-08
tplh                =  4.88927e-10 targ=  9.51249e-08 trig=  9.46360e-08
i_vdd_avg           =  -1.58971e-06 from=  1.00000e-08 to=  3.30000e-07
power_avg_uw        =  2.76869e+00


Total analysis time (seconds) = 3.02165

Total elapsed time (seconds) = 3.193 

Total DRAM available = 16384.000 MB.
DRAM currently available =  115.812 MB.
Maximum ngspice program size =   26.359 MB.
Current ngspice program size =   26.359 MB.

