
Note: Compatibility modes selected: hs a


Circuit: SKY130 library cell nand2_4 A_to_Y__B=1

option SCALE: Scale is set to 1e-06 for instance and model parameters
Doing analysis at TEMP = 94.759631 and TNOM = 27.000000

Using KLU as Direct Linear Solver
 Reference value :  9.83140e-09
 Reference value :  5.69018e-08
 Reference value :  9.93718e-08
 Reference value :  1.45511e-07
 Reference value :  1.91388e-07
 Reference value :  2.36827e-07
 Reference value :  2.80471e-07
 Reference value :  3.25661e-07
No. of Data Rows : 68032

  Measurements for Transient Analysis

tphl                =  2.80864e-10 targ=  2.85505e-08 trig=  2.82696e-08
tplh                =  1.34890e-09 targ=  1.08158e-07 trig=  1.06809e-07
i_vdd_avg           =  -4.76628e-06 from=  1.00000e-08 to=  3.30001e-07
power_avg_uw        =  9.09601e+00


Total analysis time (seconds) = 1.92657

Total elapsed time (seconds) = 2.100 

Total DRAM available = 16384.000 MB.
DRAM currently available =   95.531 MB.
Maximum ngspice program size =   28.844 MB.
Current ngspice program size =   28.844 MB.

