
Note: Compatibility modes selected: hs a


Circuit: SKY130 library cell mux2_1 A0_to_X__A1=0,S=0

option SCALE: Scale is set to 1e-06 for instance and model parameters
Doing analysis at TEMP = 106.528460 and TNOM = 27.000000

Using KLU as Direct Linear Solver
 Reference value :  1.60764e-08
 Reference value :  6.73492e-08
 Reference value :  1.21446e-07
 Reference value :  1.73946e-07
 Reference value :  2.24734e-07
 Reference value :  2.79266e-07
 Reference value :  3.30146e-07
No. of Data Rows : 68030

  Measurements for Transient Analysis

tplh                =  4.36192e-10 targ=  2.49145e-08 trig=  2.44783e-08
tphl                =  4.76772e-10 targ=  9.59118e-08 trig=  9.54350e-08
i_vdd_avg           =  -7.29432e-07 from=  1.00000e-08 to=  3.30001e-07
power_avg_uw        =  1.23718e+00


Total analysis time (seconds) = 1.67463

Total elapsed time (seconds) = 1.852 

Total DRAM available = 16384.000 MB.
DRAM currently available =  143.734 MB.
Maximum ngspice program size =   26.109 MB.
Current ngspice program size =   26.109 MB.

