
Note: Compatibility modes selected: hs a


Circuit: SKY130 library cell inv_4 A_to_Y

option SCALE: Scale is set to 1e-06 for instance and model parameters
Doing analysis at TEMP = -11.077414 and TNOM = 27.000000

Using KLU as Direct Linear Solver
 Reference value :  3.03216e-08
 Reference value :  1.28771e-07
 Reference value :  2.20937e-07
 Reference value :  3.08176e-07
No. of Data Rows : 68032

  Measurements for Transient Analysis

tphl                =  7.67843e-11 targ=  2.47088e-08 trig=  2.46320e-08
tplh                =  3.63937e-10 targ=  9.62601e-08 trig=  9.58961e-08
i_vdd_avg           =  -3.92403e-07 from=  1.00000e-08 to=  3.30001e-07
power_avg_uw        =  6.42973e-01


Total analysis time (seconds) = 0.923027

Total elapsed time (seconds) = 1.091 

Total DRAM available = 16384.000 MB.
DRAM currently available =  170.594 MB.
Maximum ngspice program size =   26.547 MB.
Current ngspice program size =   26.547 MB.

