
Note: Compatibility modes selected: hs a


Circuit: SKY130 library cell xor2_4 A_to_X__B=0

option SCALE: Scale is set to 1e-06 for instance and model parameters
Doing analysis at TEMP = 110.936630 and TNOM = 27.000000

Using KLU as Direct Linear Solver
 Reference value :  5.19140e-09
 Reference value :  2.17714e-08
 Reference value :  3.90331e-08
 Reference value :  5.68131e-08
 Reference value :  7.38531e-08
 Reference value :  9.15431e-08
 Reference value :  1.08284e-07
 Reference value :  1.24369e-07
 Reference value :  1.42559e-07
 Reference value :  1.60099e-07
 Reference value :  1.78149e-07
 Reference value :  1.94953e-07
 Reference value :  2.12813e-07
 Reference value :  2.29988e-07
 Reference value :  2.46218e-07
 Reference value :  2.64129e-07
 Reference value :  2.81454e-07
 Reference value :  2.97859e-07
 Reference value :  3.15784e-07
 Reference value :  3.33159e-07
No. of Data Rows : 68032

  Measurements for Transient Analysis

tplh                =  3.09653e-10 targ=  2.48399e-08 trig=  2.45303e-08
tphl                =  2.86850e-10 targ=  9.58777e-08 trig=  9.55908e-08
i_vdd_avg           =  -1.31520e-06 from=  1.00000e-08 to=  3.30004e-07
power_avg_uw        =  2.49009e+00


Total analysis time (seconds) = 5.02055

Total elapsed time (seconds) = 5.188 

Total DRAM available = 16384.000 MB.
DRAM currently available =  155.625 MB.
Maximum ngspice program size =   25.812 MB.
Current ngspice program size =   25.812 MB.

