
Note: Compatibility modes selected: hs a


Circuit: SKY130 library cell nor2_1 A_to_Y__B=0

option SCALE: Scale is set to 1e-06 for instance and model parameters
Doing analysis at TEMP = 58.279375 and TNOM = 27.000000

Using KLU as Direct Linear Solver
 Reference value :  5.66604e-08
 Reference value :  1.98550e-07
 Reference value :  3.36168e-07
No. of Data Rows : 68034

  Measurements for Transient Analysis

tphl                =  1.45915e-09 targ=  2.93656e-08 trig=  2.79064e-08
tplh                =  2.99743e-09 targ=  1.08717e-07 trig=  1.05719e-07
i_vdd_avg           =  -8.68084e-07 from=  1.00000e-08 to=  3.30003e-07
power_avg_uw        =  1.62738e+00


Total analysis time (seconds) = 0.618154

Total elapsed time (seconds) = 0.768 

Total DRAM available = 16384.000 MB.
DRAM currently available =   87.938 MB.
Maximum ngspice program size =   24.312 MB.
Current ngspice program size =   24.312 MB.

