
Note: Compatibility modes selected: hs a


Circuit: SKY130 library cell mux2_4 A0_to_X__A1=0,S=0

option SCALE: Scale is set to 1e-06 for instance and model parameters
Doing analysis at TEMP = -36.086966 and TNOM = 27.000000

Using KLU as Direct Linear Solver
 Reference value :  1.29214e-08
 Reference value :  4.87058e-08
 Reference value :  8.23158e-08
 Reference value :  1.18869e-07
 Reference value :  1.55639e-07
 Reference value :  1.91753e-07
 Reference value :  2.27771e-07
 Reference value :  2.64481e-07
 Reference value :  3.00909e-07
 Reference value :  3.35959e-07
No. of Data Rows : 68034

  Measurements for Transient Analysis

tplh                =  1.01489e-09 targ=  2.90440e-08 trig=  2.80291e-08
tphl                =  2.32515e-09 targ=  1.08413e-07 trig=  1.06087e-07
i_vdd_avg           =  -1.80090e-06 from=  1.00000e-08 to=  3.30004e-07
power_avg_uw        =  2.97081e+00


Total analysis time (seconds) = 2.44922

Total elapsed time (seconds) = 2.612 

Total DRAM available = 16384.000 MB.
DRAM currently available =  196.188 MB.
Maximum ngspice program size =   24.922 MB.
Current ngspice program size =   24.922 MB.

