
Note: Compatibility modes selected: hs a


Circuit: SKY130 library cell nand2_4 A_to_Y__B=1

option SCALE: Scale is set to 1e-06 for instance and model parameters
Doing analysis at TEMP = 111.856400 and TNOM = 27.000000

Using KLU as Direct Linear Solver
 Reference value :  1.74614e-08
 Reference value :  6.22627e-08
 Reference value :  1.04693e-07
 Reference value :  1.48313e-07
 Reference value :  1.94783e-07
 Reference value :  2.40243e-07
 Reference value :  2.83498e-07
 Reference value :  3.27618e-07
No. of Data Rows : 68032

  Measurements for Transient Analysis

tphl                =  5.77623e-10 targ=  2.57152e-08 trig=  2.51376e-08
tplh                =  7.90837e-10 targ=  9.82036e-08 trig=  9.74128e-08
i_vdd_avg           =  -1.88384e-06 from=  1.00000e-08 to=  3.30003e-07
power_avg_uw        =  3.33574e+00


Total analysis time (seconds) = 1.92451

Total elapsed time (seconds) = 2.091 

Total DRAM available = 16384.000 MB.
DRAM currently available =  117.547 MB.
Maximum ngspice program size =   24.359 MB.
Current ngspice program size =   24.359 MB.

