
Note: Compatibility modes selected: hs a


Circuit: SKY130 library cell inv_4 A_to_Y

option SCALE: Scale is set to 1e-06 for instance and model parameters
Doing analysis at TEMP = 83.865014 and TNOM = 27.000000

Using KLU as Direct Linear Solver
 Reference value :  4.30456e-08
 Reference value :  1.37324e-07
 Reference value :  2.34321e-07
 Reference value :  3.36534e-07
No. of Data Rows : 68034

  Measurements for Transient Analysis

tphl                =  -1.92861e-10 targ=  2.61537e-08 trig=  2.63466e-08
tplh                =  4.29891e-10 targ=  1.01470e-07 trig=  1.01040e-07
i_vdd_avg           =  -7.26240e-07 from=  1.00000e-08 to=  3.30004e-07
power_avg_uw        =  1.18159e+00


Total analysis time (seconds) = 0.87011

Total elapsed time (seconds) = 1.004 

Total DRAM available = 16384.000 MB.
DRAM currently available =  135.562 MB.
Maximum ngspice program size =   24.547 MB.
Current ngspice program size =   24.547 MB.

