
Note: Compatibility modes selected: hs a


Circuit: SKY130 library cell inv_1 A_to_Y

option SCALE: Scale is set to 1e-06 for instance and model parameters
Doing analysis at TEMP = -19.128792 and TNOM = 27.000000

Using KLU as Direct Linear Solver
 Reference value :  8.05212e-08
No. of Data Rows : 68034

  Measurements for Transient Analysis

tphl                =  5.22644e-10 targ=  2.55320e-08 trig=  2.50094e-08
tplh                =  9.79080e-10 targ=  9.80072e-08 trig=  9.70281e-08
i_vdd_avg           =  -4.28570e-07 from=  1.00000e-08 to=  3.30005e-07
power_avg_uw        =  8.03316e-01


Total analysis time (seconds) = 0.330114

Total elapsed time (seconds) = 0.482 

Total DRAM available = 16384.000 MB.
DRAM currently available =  132.047 MB.
Maximum ngspice program size =   25.375 MB.
Current ngspice program size =   25.375 MB.

