
Note: Compatibility modes selected: hs a


Circuit: SKY130 library cell aoi21_4 A1_to_Y__A2=1,B1=0

option SCALE: Scale is set to 1e-06 for instance and model parameters
Doing analysis at TEMP = 41.580010 and TNOM = 27.000000

Using KLU as Direct Linear Solver
 Reference value :  7.13640e-09
 Reference value :  3.35225e-08
 Reference value :  6.37965e-08
 Reference value :  9.13265e-08
 Reference value :  1.20510e-07
 Reference value :  1.48320e-07
 Reference value :  1.77590e-07
 Reference value :  2.05426e-07
 Reference value :  2.34891e-07
 Reference value :  2.64581e-07
 Reference value :  2.92365e-07
 Reference value :  3.20720e-07
No. of Data Rows : 68032

  Measurements for Transient Analysis

tphl                =  7.69025e-10 targ=  3.01335e-08 trig=  2.93645e-08
tplh                =  1.95381e-09 targ=  1.12047e-07 trig=  1.10093e-07
i_vdd_avg           =  -6.92991e-07 from=  1.00000e-08 to=  3.30000e-07
power_avg_uw        =  1.25799e+00


Total analysis time (seconds) = 3.05329

Total elapsed time (seconds) = 3.238 

Total DRAM available = 16384.000 MB.
DRAM currently available =  115.594 MB.
Maximum ngspice program size =   28.438 MB.
Current ngspice program size =   28.438 MB.

