
Note: Compatibility modes selected: hs a


Circuit: SKY130 library cell nor2_1 A_to_Y__B=0

option SCALE: Scale is set to 1e-06 for instance and model parameters
Doing analysis at TEMP = 10.178798 and TNOM = 27.000000

Using KLU as Direct Linear Solver
 Reference value :  5.60936e-08
 Reference value :  2.00639e-07
No. of Data Rows : 68032

  Measurements for Transient Analysis

tphl                =  2.22969e-09 targ=  3.15977e-08 trig=  2.93680e-08
tplh                =  5.07432e-09 targ=  1.15178e-07 trig=  1.10104e-07
i_vdd_avg           =  -1.73474e-06 from=  1.00000e-08 to=  3.30005e-07
power_avg_uw        =  3.35545e+00


Total analysis time (seconds) = 0.584527

Total elapsed time (seconds) = 0.748 

Total DRAM available = 16384.000 MB.
DRAM currently available =  183.094 MB.
Maximum ngspice program size =   27.922 MB.
Current ngspice program size =   27.922 MB.

