
Note: Compatibility modes selected: hs a


Circuit: SKY130 library cell oai21_4 A1_to_Y__A2=0,B1=1

option SCALE: Scale is set to 1e-06 for instance and model parameters
Doing analysis at TEMP = -33.396491 and TNOM = 27.000000

Using KLU as Direct Linear Solver
 Reference value :  5.64140e-09
 Reference value :  3.33603e-08
 Reference value :  6.08603e-08
 Reference value :  8.46353e-08
 Reference value :  1.12385e-07
 Reference value :  1.40788e-07
 Reference value :  1.64768e-07
 Reference value :  1.89473e-07
 Reference value :  2.17105e-07
 Reference value :  2.44970e-07
 Reference value :  2.70970e-07
 Reference value :  2.99253e-07
 Reference value :  3.25993e-07
No. of Data Rows : 68034

  Measurements for Transient Analysis

tphl                =  1.12062e-09 targ=  2.97745e-08 trig=  2.86539e-08
tplh                =  2.73897e-09 targ=  1.10701e-07 trig=  1.07962e-07
i_vdd_avg           =  -3.88929e-07 from=  1.00000e-08 to=  3.30003e-07
power_avg_uw        =  6.46808e-01


Total analysis time (seconds) = 3.5994

Total elapsed time (seconds) = 3.789 

Total DRAM available = 16384.000 MB.
DRAM currently available =  163.984 MB.
Maximum ngspice program size =   27.078 MB.
Current ngspice program size =   27.078 MB.

