
Note: Compatibility modes selected: hs a


Circuit: SKY130 library cell xor2_4 A_to_X__B=0

option SCALE: Scale is set to 1e-06 for instance and model parameters
Doing analysis at TEMP = 47.358747 and TNOM = 27.000000

Using KLU as Direct Linear Solver
 Reference value :  4.10640e-09
 Reference value :  2.09214e-08
 Reference value :  3.94962e-08
 Reference value :  5.69962e-08
 Reference value :  7.42662e-08
 Reference value :  9.10812e-08
 Reference value :  1.08575e-07
 Reference value :  1.25305e-07
 Reference value :  1.43110e-07
 Reference value :  1.60670e-07
 Reference value :  1.78280e-07
 Reference value :  1.95971e-07
 Reference value :  2.13636e-07
 Reference value :  2.29871e-07
 Reference value :  2.45826e-07
 Reference value :  2.61601e-07
 Reference value :  2.78135e-07
 Reference value :  2.94960e-07
 Reference value :  3.12480e-07
 Reference value :  3.30915e-07
No. of Data Rows : 68034

  Measurements for Transient Analysis

tplh                =  -1.00408e-10 targ=  2.74740e-08 trig=  2.75744e-08
tphl                =  7.74376e-10 targ=  1.05497e-07 trig=  1.04723e-07
i_vdd_avg           =  -8.88127e-07 from=  1.00000e-08 to=  3.30005e-07
power_avg_uw        =  1.67354e+00


Total analysis time (seconds) = 4.9986

Total elapsed time (seconds) = 5.172 

Total DRAM available = 16384.000 MB.
DRAM currently available =  134.031 MB.
Maximum ngspice program size =   29.344 MB.
Current ngspice program size =   29.344 MB.

