
Note: Compatibility modes selected: hs a


Circuit: SKY130 library cell oai21_4 A1_to_Y__A2=0,B1=1

option SCALE: Scale is set to 1e-06 for instance and model parameters
Doing analysis at TEMP = 37.595593 and TNOM = 27.000000

Using KLU as Direct Linear Solver
 Reference value :  5.92640e-09
 Reference value :  3.37231e-08
 Reference value :  6.11781e-08
 Reference value :  8.56981e-08
 Reference value :  1.13434e-07
 Reference value :  1.39919e-07
 Reference value :  1.65854e-07
 Reference value :  1.93638e-07
 Reference value :  2.18533e-07
 Reference value :  2.44603e-07
 Reference value :  2.70959e-07
 Reference value :  2.96834e-07
 Reference value :  3.25829e-07
No. of Data Rows : 68032

  Measurements for Transient Analysis

tphl                =  1.26057e-10 targ=  2.69614e-08 trig=  2.68353e-08
tplh                =  1.26653e-09 targ=  1.03772e-07 trig=  1.02506e-07
i_vdd_avg           =  -2.98990e-06 from=  1.00000e-08 to=  3.30004e-07
power_avg_uw        =  5.90421e+00


Total analysis time (seconds) = 3.56164

Total elapsed time (seconds) = 3.746 

Total DRAM available = 16384.000 MB.
DRAM currently available =  163.984 MB.
Maximum ngspice program size =   27.906 MB.
Current ngspice program size =   27.906 MB.

