
Note: Compatibility modes selected: hs a


Circuit: SKY130 library cell nand2_4 A_to_Y__B=1

option SCALE: Scale is set to 1e-06 for instance and model parameters
Doing analysis at TEMP = 74.424976 and TNOM = 27.000000

Using KLU as Direct Linear Solver
 Reference value :  1.57314e-08
 Reference value :  5.91997e-08
 Reference value :  1.08215e-07
 Reference value :  1.56587e-07
 Reference value :  2.03415e-07
 Reference value :  2.49900e-07
 Reference value :  2.96482e-07
 Reference value :  3.39837e-07
No. of Data Rows : 68030

  Measurements for Transient Analysis

tphl                =  -1.73692e-10 targ=  2.88549e-08 trig=  2.90286e-08
tplh                =  1.20265e-09 targ=  1.10288e-07 trig=  1.09086e-07
i_vdd_avg           =  -4.51868e-06 from=  1.00000e-08 to=  3.30002e-07
power_avg_uw        =  8.78760e+00


Total analysis time (seconds) = 1.87808

Total elapsed time (seconds) = 2.032 

Total DRAM available = 16384.000 MB.
DRAM currently available =  107.953 MB.
Maximum ngspice program size =   24.844 MB.
Current ngspice program size =   24.844 MB.

