
Note: Compatibility modes selected: hs a


Circuit: SKY130 library cell nand2_1 A_to_Y__B=1

option SCALE: Scale is set to 1e-06 for instance and model parameters
Doing analysis at TEMP = 26.825187 and TNOM = 27.000000

Using KLU as Direct Linear Solver
 Reference value :  5.22661e-08
 Reference value :  2.10046e-07
No. of Data Rows : 68034

  Measurements for Transient Analysis

tphl                =  4.71578e-10 targ=  2.49834e-08 trig=  2.45118e-08
tplh                =  7.04678e-10 targ=  9.62400e-08 trig=  9.55353e-08
i_vdd_avg           =  -1.28608e-06 from=  1.00000e-08 to=  3.30005e-07
power_avg_uw        =  2.54214e+00


Total analysis time (seconds) = 0.575541

Total elapsed time (seconds) = 0.726 

Total DRAM available = 16384.000 MB.
DRAM currently available =  111.547 MB.
Maximum ngspice program size =   26.969 MB.
Current ngspice program size =   26.969 MB.

