
Note: Compatibility modes selected: hs a


Circuit: SKY130 library cell nor2_4 A_to_Y__B=0

option SCALE: Scale is set to 1e-06 for instance and model parameters
Doing analysis at TEMP = 68.125620 and TNOM = 27.000000

Using KLU as Direct Linear Solver
 Reference value :  1.27164e-08
 Reference value :  5.36587e-08
 Reference value :  1.01190e-07
 Reference value :  1.43515e-07
 Reference value :  1.84238e-07
 Reference value :  2.29054e-07
 Reference value :  2.72930e-07
 Reference value :  3.16635e-07
No. of Data Rows : 68032

  Measurements for Transient Analysis

tphl                =  1.49913e-10 targ=  2.58330e-08 trig=  2.56831e-08
tplh                =  6.66603e-10 targ=  9.97159e-08 trig=  9.90493e-08
i_vdd_avg           =  -7.87942e-07 from=  1.00000e-08 to=  3.30005e-07
power_avg_uw        =  1.46679e+00


Total analysis time (seconds) = 1.99482

Total elapsed time (seconds) = 2.165 

Total DRAM available = 16384.000 MB.
DRAM currently available =  102.875 MB.
Maximum ngspice program size =   25.516 MB.
Current ngspice program size =   25.516 MB.

