
Note: Compatibility modes selected: hs a


Circuit: SKY130 library cell inv_1 A_to_Y

option SCALE: Scale is set to 1e-06 for instance and model parameters
Doing analysis at TEMP = 95.228161 and TNOM = 27.000000

Using KLU as Direct Linear Solver
 Reference value :  9.98782e-08
No. of Data Rows : 68032

  Measurements for Transient Analysis

tphl                =  1.83207e-09 targ=  3.00599e-08 trig=  2.82279e-08
tplh                =  3.24669e-09 targ=  1.09930e-07 trig=  1.06684e-07
i_vdd_avg           =  -2.00723e-06 from=  1.00000e-08 to=  3.30004e-07
power_avg_uw        =  3.55410e+00


Total analysis time (seconds) = 0.312564

Total elapsed time (seconds) = 0.482 

Total DRAM available = 16384.000 MB.
DRAM currently available =  277.297 MB.
Maximum ngspice program size =   25.422 MB.
Current ngspice program size =   25.422 MB.

