
Note: Compatibility modes selected: hs a


Circuit: SKY130 library cell nand3_4 A_to_Y__B=1,C=1

option SCALE: Scale is set to 1e-06 for instance and model parameters
Doing analysis at TEMP = 89.826959 and TNOM = 27.000000

Using KLU as Direct Linear Solver
 Reference value :  7.26140e-09
 Reference value :  3.33430e-08
 Reference value :  6.05830e-08
 Reference value :  8.83930e-08
 Reference value :  1.16949e-07
 Reference value :  1.45214e-07
 Reference value :  1.73229e-07
 Reference value :  2.00918e-07
 Reference value :  2.29018e-07
 Reference value :  2.56438e-07
 Reference value :  2.84559e-07
 Reference value :  3.11369e-07
 Reference value :  3.38574e-07
No. of Data Rows : 68032

  Measurements for Transient Analysis

tphl                =  9.90642e-10 targ=  2.93184e-08 trig=  2.83278e-08
tplh                =  1.64169e-09 targ=  1.08625e-07 trig=  1.06983e-07
i_vdd_avg           =  -3.02195e-06 from=  1.00000e-08 to=  3.30004e-07
power_avg_uw        =  5.71832e+00


Total analysis time (seconds) = 3.16956

Total elapsed time (seconds) = 3.350 

Total DRAM available = 16384.000 MB.
DRAM currently available =  102.266 MB.
Maximum ngspice program size =   25.781 MB.
Current ngspice program size =   25.781 MB.

