
Note: Compatibility modes selected: hs a


Circuit: SKY130 library cell nand2_1 A_to_Y__B=1

option SCALE: Scale is set to 1e-06 for instance and model parameters
Doing analysis at TEMP = 83.821126 and TNOM = 27.000000

Using KLU as Direct Linear Solver
 Reference value :  5.18810e-08
 Reference value :  2.01286e-07
No. of Data Rows : 68034

  Measurements for Transient Analysis

tphl                =  1.16300e-09 targ=  2.66722e-08 trig=  2.55092e-08
tplh                =  1.40637e-09 targ=  9.99340e-08 trig=  9.85277e-08
i_vdd_avg           =  -6.00698e-07 from=  1.00000e-08 to=  3.30004e-07
power_avg_uw        =  1.04464e+00


Total analysis time (seconds) = 0.55803

Total elapsed time (seconds) = 0.720 

Total DRAM available = 16384.000 MB.
DRAM currently available =  111.547 MB.
Maximum ngspice program size =   26.328 MB.
Current ngspice program size =   26.328 MB.

