
Note: Compatibility modes selected: hs a


Circuit: SKY130 library cell nor2_1 A_to_Y__B=0

option SCALE: Scale is set to 1e-06 for instance and model parameters
Doing analysis at TEMP = -11.932537 and TNOM = 27.000000

Using KLU as Direct Linear Solver
 Reference value :  5.70111e-08
 Reference value :  2.14471e-07
No. of Data Rows : 68034

  Measurements for Transient Analysis

tphl                =  1.42382e-10 targ=  2.70167e-08 trig=  2.68743e-08
tplh                =  1.17803e-09 targ=  1.03801e-07 trig=  1.02623e-07
i_vdd_avg           =  -6.62945e-08 from=  1.00000e-08 to=  3.30005e-07
power_avg_uw        =  1.10569e-01


Total analysis time (seconds) = 0.553262

Total elapsed time (seconds) = 0.704 

Total DRAM available = 16384.000 MB.
DRAM currently available =   87.938 MB.
Maximum ngspice program size =   25.172 MB.
Current ngspice program size =   25.172 MB.

