
Note: Compatibility modes selected: hs a


Circuit: SKY130 library cell oai21_4 A1_to_Y__A2=0,B1=1

option SCALE: Scale is set to 1e-06 for instance and model parameters
Doing analysis at TEMP = 60.639381 and TNOM = 27.000000

Using KLU as Direct Linear Solver
 Reference value :  7.42640e-09
 Reference value :  3.48675e-08
 Reference value :  6.35798e-08
 Reference value :  9.08098e-08
 Reference value :  1.17667e-07
 Reference value :  1.45612e-07
 Reference value :  1.73297e-07
 Reference value :  2.01550e-07
 Reference value :  2.29625e-07
 Reference value :  2.57070e-07
 Reference value :  2.84607e-07
 Reference value :  3.13582e-07
No. of Data Rows : 68030

  Measurements for Transient Analysis

tphl                =  9.41966e-10 targ=  3.05631e-08 trig=  2.96212e-08
tplh                =  2.64471e-09 targ=  1.13508e-07 trig=  1.10863e-07
i_vdd_avg           =  -2.35136e-06 from=  1.00000e-08 to=  3.30002e-07
power_avg_uw        =  4.14002e+00


Total analysis time (seconds) = 3.0969

Total elapsed time (seconds) = 3.276 

Total DRAM available = 16384.000 MB.
DRAM currently available =  150.422 MB.
Maximum ngspice program size =   27.172 MB.
Current ngspice program size =   27.172 MB.

