
Note: Compatibility modes selected: hs a


Circuit: SKY130 library cell mux2_1 A0_to_X__A1=0,S=0

option SCALE: Scale is set to 1e-06 for instance and model parameters
Doing analysis at TEMP = 43.615611 and TNOM = 27.000000

Using KLU as Direct Linear Solver
 Reference value :  1.55814e-08
 Reference value :  7.21030e-08
 Reference value :  1.21003e-07
 Reference value :  1.72508e-07
 Reference value :  2.27183e-07
 Reference value :  2.74618e-07
 Reference value :  3.25838e-07
No. of Data Rows : 68032

  Measurements for Transient Analysis

tplh                =  1.43491e-10 targ=  2.49462e-08 trig=  2.48027e-08
tphl                =  4.08391e-10 targ=  9.68166e-08 trig=  9.64082e-08
i_vdd_avg           =  -3.61055e-07 from=  1.00000e-08 to=  3.30003e-07
power_avg_uw        =  7.01734e-01


Total analysis time (seconds) = 1.69121

Total elapsed time (seconds) = 1.860 

Total DRAM available = 16384.000 MB.
DRAM currently available =  168.500 MB.
Maximum ngspice program size =   28.641 MB.
Current ngspice program size =   28.641 MB.

