
Note: Compatibility modes selected: hs a


Circuit: SKY130 library cell nor2_4 A_to_Y__B=0

option SCALE: Scale is set to 1e-06 for instance and model parameters
Doing analysis at TEMP = 88.527949 and TNOM = 27.000000

Using KLU as Direct Linear Solver
 Reference value :  1.74014e-08
 Reference value :  6.22397e-08
 Reference value :  1.06292e-07
 Reference value :  1.50557e-07
 Reference value :  1.96165e-07
 Reference value :  2.41250e-07
 Reference value :  2.87837e-07
 Reference value :  3.33132e-07
No. of Data Rows : 68030

  Measurements for Transient Analysis

tphl                =  -1.20544e-10 targ=  2.61456e-08 trig=  2.62661e-08
tplh                =  7.04866e-10 targ=  1.01503e-07 trig=  1.00798e-07
i_vdd_avg           =  -2.13129e-06 from=  1.00000e-08 to=  3.30002e-07
power_avg_uw        =  4.16276e+00


Total analysis time (seconds) = 1.89003

Total elapsed time (seconds) = 2.048 

Total DRAM available = 16384.000 MB.
DRAM currently available =  125.875 MB.
Maximum ngspice program size =   24.938 MB.
Current ngspice program size =   24.938 MB.

