
Note: Compatibility modes selected: hs a


Circuit: SKY130 library cell nor2_4 A_to_Y__B=0

option SCALE: Scale is set to 1e-06 for instance and model parameters
Doing analysis at TEMP = 19.679712 and TNOM = 27.000000

Using KLU as Direct Linear Solver
 Reference value :  1.68564e-08
 Reference value :  6.05111e-08
 Reference value :  1.02300e-07
 Reference value :  1.48600e-07
 Reference value :  1.94071e-07
 Reference value :  2.39476e-07
 Reference value :  2.86585e-07
 Reference value :  3.28465e-07
No. of Data Rows : 68034

  Measurements for Transient Analysis

tphl                =  2.16489e-10 targ=  2.51858e-08 trig=  2.49693e-08
tplh                =  7.96034e-10 targ=  9.77039e-08 trig=  9.69079e-08
i_vdd_avg           =  -1.64178e-06 from=  1.00000e-08 to=  3.30005e-07
power_avg_uw        =  2.92073e+00


Total analysis time (seconds) = 1.91522

Total elapsed time (seconds) = 2.071 

Total DRAM available = 16384.000 MB.
DRAM currently available =  102.875 MB.
Maximum ngspice program size =   26.391 MB.
Current ngspice program size =   26.391 MB.

