
Note: Compatibility modes selected: hs a


Circuit: SKY130 library cell inv_1 A_to_Y

option SCALE: Scale is set to 1e-06 for instance and model parameters
Doing analysis at TEMP = -7.286474 and TNOM = 27.000000

Using KLU as Direct Linear Solver
 Reference value :  1.30558e-07
No. of Data Rows : 68032

  Measurements for Transient Analysis

tphl                =  1.70233e-10 targ=  2.43655e-08 trig=  2.41952e-08
tplh                =  3.19752e-10 targ=  9.49055e-08 trig=  9.45857e-08
i_vdd_avg           =  -4.01151e-07 from=  1.00000e-08 to=  3.30003e-07
power_avg_uw        =  7.65077e-01


Total analysis time (seconds) = 0.346864

Total elapsed time (seconds) = 0.475 

Total DRAM available = 16384.000 MB.
DRAM currently available =   90.109 MB.
Maximum ngspice program size =   24.688 MB.
Current ngspice program size =   24.688 MB.

