
Note: Compatibility modes selected: hs a


Circuit: SKY130 library cell nand2_4 A_to_Y__B=1

option SCALE: Scale is set to 1e-06 for instance and model parameters
Doing analysis at TEMP = 75.855142 and TNOM = 27.000000

Using KLU as Direct Linear Solver
 Reference value :  1.49914e-08
 Reference value :  6.12585e-08
 Reference value :  1.06509e-07
 Reference value :  1.51915e-07
 Reference value :  1.98919e-07
 Reference value :  2.42214e-07
 Reference value :  2.86530e-07
 Reference value :  3.30670e-07
No. of Data Rows : 68032

  Measurements for Transient Analysis

tphl                =  5.71559e-10 targ=  2.80571e-08 trig=  2.74855e-08
tplh                =  1.33655e-09 targ=  1.05793e-07 trig=  1.04457e-07
i_vdd_avg           =  -2.74165e-06 from=  1.00000e-08 to=  3.30005e-07
power_avg_uw        =  5.38140e+00


Total analysis time (seconds) = 1.92486

Total elapsed time (seconds) = 2.078 

Total DRAM available = 16384.000 MB.
DRAM currently available =  107.953 MB.
Maximum ngspice program size =   29.188 MB.
Current ngspice program size =   29.188 MB.

