
Note: Compatibility modes selected: hs a


Circuit: SKY130 library cell nand2_4 A_to_Y__B=1

option SCALE: Scale is set to 1e-06 for instance and model parameters
Doing analysis at TEMP = 1.640535 and TNOM = 27.000000

Using KLU as Direct Linear Solver
 Reference value :  1.45764e-08
 Reference value :  6.19038e-08
 Reference value :  1.13110e-07
 Reference value :  1.58450e-07
 Reference value :  2.02484e-07
 Reference value :  2.48504e-07
 Reference value :  2.94750e-07
 Reference value :  3.39380e-07
No. of Data Rows : 68030

  Measurements for Transient Analysis

tphl                =  2.71026e-10 targ=  2.71292e-08 trig=  2.68582e-08
tplh                =  1.12836e-09 targ=  1.03703e-07 trig=  1.02574e-07
i_vdd_avg           =  -3.96308e-07 from=  1.00000e-08 to=  3.30000e-07
power_avg_uw        =  6.58242e-01


Total analysis time (seconds) = 1.87064

Total elapsed time (seconds) = 2.033 

Total DRAM available = 16384.000 MB.
DRAM currently available =  107.953 MB.
Maximum ngspice program size =   27.172 MB.
Current ngspice program size =   27.172 MB.

