
Note: Compatibility modes selected: hs a


Circuit: SKY130 library cell inv_1 A_to_Y

option SCALE: Scale is set to 1e-06 for instance and model parameters
Doing analysis at TEMP = 78.203024 and TNOM = 27.000000

Using KLU as Direct Linear Solver
 Reference value :  1.16145e-07
No. of Data Rows : 68030

  Measurements for Transient Analysis

tphl                =  9.69466e-10 targ=  2.78077e-08 trig=  2.68382e-08
tplh                =  1.87908e-09 targ=  1.04394e-07 trig=  1.02515e-07
i_vdd_avg           =  -6.54922e-07 from=  1.00000e-08 to=  3.30000e-07
power_avg_uw        =  1.07975e+00


Total analysis time (seconds) = 0.342892

Total elapsed time (seconds) = 0.471 

Total DRAM available = 16384.000 MB.
DRAM currently available =  203.391 MB.
Maximum ngspice program size =   24.953 MB.
Current ngspice program size =   24.953 MB.

