
Note: Compatibility modes selected: hs a


Circuit: SKY130 library cell nand3_1 A_to_Y__B=1,C=1

option SCALE: Scale is set to 1e-06 for instance and model parameters
Doing analysis at TEMP = 8.051298 and TNOM = 27.000000

Using KLU as Direct Linear Solver
 Reference value :  3.20991e-08
 Reference value :  1.32126e-07
 Reference value :  2.31779e-07
 Reference value :  3.30246e-07
No. of Data Rows : 68030

  Measurements for Transient Analysis

tphl                =  8.54789e-10 targ=  2.52806e-08 trig=  2.44258e-08
tplh                =  1.02983e-09 targ=  9.63073e-08 trig=  9.52774e-08
i_vdd_avg           =  -1.35047e-06 from=  1.00000e-08 to=  3.30001e-07
power_avg_uw        =  2.46153e+00


Total analysis time (seconds) = 0.875154

Total elapsed time (seconds) = 1.047 

Total DRAM available = 16384.000 MB.
DRAM currently available =  164.547 MB.
Maximum ngspice program size =   27.094 MB.
Current ngspice program size =   27.094 MB.

