
Note: Compatibility modes selected: hs a


Circuit: SKY130 library cell inv_1 A_to_Y

option SCALE: Scale is set to 1e-06 for instance and model parameters
Doing analysis at TEMP = -0.457358 and TNOM = 27.000000

Using KLU as Direct Linear Solver
 Reference value :  1.05286e-07
No. of Data Rows : 68034

  Measurements for Transient Analysis

tphl                =  1.13143e-09 targ=  2.84757e-08 trig=  2.73442e-08
tplh                =  2.60408e-09 targ=  1.06637e-07 trig=  1.04033e-07
i_vdd_avg           =  -1.77422e-06 from=  1.00000e-08 to=  3.30004e-07
power_avg_uw        =  3.47825e+00


Total analysis time (seconds) = 0.327005

Total elapsed time (seconds) = 0.497 

Total DRAM available = 16384.000 MB.
DRAM currently available =  132.047 MB.
Maximum ngspice program size =   26.359 MB.
Current ngspice program size =   26.359 MB.

