
Note: Compatibility modes selected: hs a


Circuit: SKY130 library cell oai21_4 A1_to_Y__A2=0,B1=1

option SCALE: Scale is set to 1e-06 for instance and model parameters
Doing analysis at TEMP = 99.855047 and TNOM = 27.000000

Using KLU as Direct Linear Solver
 Reference value :  7.71140e-09
 Reference value :  3.62289e-08
 Reference value :  6.31139e-08
 Reference value :  8.97089e-08
 Reference value :  1.16660e-07
 Reference value :  1.44270e-07
 Reference value :  1.72380e-07
 Reference value :  2.00069e-07
 Reference value :  2.26849e-07
 Reference value :  2.56239e-07
 Reference value :  2.85505e-07
 Reference value :  3.12745e-07
No. of Data Rows : 68030

  Measurements for Transient Analysis

tphl                =  2.88566e-10 targ=  2.51267e-08 trig=  2.48382e-08
tplh                =  4.89597e-10 targ=  9.70041e-08 trig=  9.65145e-08
i_vdd_avg           =  -5.87478e-07 from=  1.00000e-08 to=  3.30000e-07
power_avg_uw        =  1.13042e+00


Total analysis time (seconds) = 3.18999

Total elapsed time (seconds) = 3.387 

Total DRAM available = 16384.000 MB.
DRAM currently available =  121.891 MB.
Maximum ngspice program size =   26.109 MB.
Current ngspice program size =   26.109 MB.

