
Note: Compatibility modes selected: hs a


Circuit: SKY130 library cell aoi21_4 A1_to_Y__A2=1,B1=0

option SCALE: Scale is set to 1e-06 for instance and model parameters
Doing analysis at TEMP = -10.960465 and TNOM = 27.000000

Using KLU as Direct Linear Solver
 Reference value :  6.67140e-09
 Reference value :  3.44485e-08
 Reference value :  6.32335e-08
 Reference value :  9.34985e-08
 Reference value :  1.21009e-07
 Reference value :  1.49439e-07
 Reference value :  1.77474e-07
 Reference value :  2.05898e-07
 Reference value :  2.32973e-07
 Reference value :  2.60698e-07
 Reference value :  2.89194e-07
 Reference value :  3.17784e-07
No. of Data Rows : 68032

  Measurements for Transient Analysis

tphl                =  1.24797e-09 targ=  2.69535e-08 trig=  2.57055e-08
tplh                =  2.49124e-09 targ=  1.01608e-07 trig=  9.91165e-08
i_vdd_avg           =  -2.20519e-06 from=  1.00000e-08 to=  3.30004e-07
power_avg_uw        =  3.67795e+00


Total analysis time (seconds) = 3.09826

Total elapsed time (seconds) = 3.271 

Total DRAM available = 16384.000 MB.
DRAM currently available =  142.641 MB.
Maximum ngspice program size =   27.312 MB.
Current ngspice program size =   27.312 MB.

