
Note: Compatibility modes selected: hs a


Circuit: SKY130 library cell nand3_1 A_to_Y__B=1,C=1

option SCALE: Scale is set to 1e-06 for instance and model parameters
Doing analysis at TEMP = 74.252423 and TNOM = 27.000000

Using KLU as Direct Linear Solver
 Reference value :  3.52132e-08
 Reference value :  1.31344e-07
 Reference value :  2.26948e-07
 Reference value :  3.31639e-07
No. of Data Rows : 68032

  Measurements for Transient Analysis

tphl                =  3.31007e-10 targ=  2.51489e-08 trig=  2.48179e-08
tplh                =  4.64542e-10 targ=  9.69181e-08 trig=  9.64536e-08
i_vdd_avg           =  -2.72333e-07 from=  1.00000e-08 to=  3.30004e-07
power_avg_uw        =  5.21173e-01


Total analysis time (seconds) = 0.865825

Total elapsed time (seconds) = 1.032 

Total DRAM available = 16384.000 MB.
DRAM currently available =  151.500 MB.
Maximum ngspice program size =   26.109 MB.
Current ngspice program size =   26.109 MB.

