
Note: Compatibility modes selected: hs a


Circuit: SKY130 library cell inv_4 A_to_Y

option SCALE: Scale is set to 1e-06 for instance and model parameters
Doing analysis at TEMP = 24.866458 and TNOM = 27.000000

Using KLU as Direct Linear Solver
 Reference value :  3.91581e-08
 Reference value :  1.39454e-07
 Reference value :  2.31158e-07
 Reference value :  3.20564e-07
No. of Data Rows : 68032

  Measurements for Transient Analysis

tphl                =  -2.66508e-10 targ=  2.64438e-08 trig=  2.67103e-08
tplh                =  7.29772e-10 targ=  1.02861e-07 trig=  1.02131e-07
i_vdd_avg           =  -1.89992e-06 from=  1.00000e-08 to=  3.30004e-07
power_avg_uw        =  3.69189e+00


Total analysis time (seconds) = 0.917322

Total elapsed time (seconds) = 1.060 

Total DRAM available = 16384.000 MB.
DRAM currently available =  146.531 MB.
Maximum ngspice program size =   25.641 MB.
Current ngspice program size =   25.641 MB.

