
Note: Compatibility modes selected: hs a


Circuit: SKY130 library cell aoi21_1 A1_to_Y__A2=1,B1=0

option SCALE: Scale is set to 1e-06 for instance and model parameters
Doing analysis at TEMP = 47.598361 and TNOM = 27.000000

Using KLU as Direct Linear Solver
 Reference value :  2.61475e-08
 Reference value :  1.31815e-07
 Reference value :  2.33164e-07
 Reference value :  3.25950e-07
No. of Data Rows : 68032

  Measurements for Transient Analysis

tphl                =  1.17443e-09 targ=  3.10300e-08 trig=  2.98556e-08
tplh                =  3.68737e-09 targ=  1.15254e-07 trig=  1.11567e-07
i_vdd_avg           =  -1.91731e-06 from=  1.00000e-08 to=  3.30005e-07
power_avg_uw        =  3.47225e+00


Total analysis time (seconds) = 0.88519

Total elapsed time (seconds) = 1.052 

Total DRAM available = 16384.000 MB.
DRAM currently available =  129.766 MB.
Maximum ngspice program size =   25.953 MB.
Current ngspice program size =   25.953 MB.

