
Note: Compatibility modes selected: hs a


Circuit: SKY130 library cell oai21_1 A1_to_Y__A2=0,B1=1

option SCALE: Scale is set to 1e-06 for instance and model parameters
Doing analysis at TEMP = 25.836803 and TNOM = 27.000000

Using KLU as Direct Linear Solver
 Reference value :  3.03669e-08
 Reference value :  1.34096e-07
 Reference value :  2.29972e-07
 Reference value :  3.30226e-07
No. of Data Rows : 68032

  Measurements for Transient Analysis

tphl                =  7.29889e-10 targ=  2.73121e-08 trig=  2.65822e-08
tplh                =  1.77884e-09 targ=  1.03526e-07 trig=  1.01747e-07
i_vdd_avg           =  -4.37593e-07 from=  1.00000e-08 to=  3.30001e-07
power_avg_uw        =  7.60774e-01


Total analysis time (seconds) = 0.862103

Total elapsed time (seconds) = 1.031 

Total DRAM available = 16384.000 MB.
DRAM currently available =  120.938 MB.
Maximum ngspice program size =   25.625 MB.
Current ngspice program size =   25.625 MB.

