
Note: Compatibility modes selected: hs a


Circuit: SKY130 library cell mux2_1 A0_to_X__A1=0,S=0

option SCALE: Scale is set to 1e-06 for instance and model parameters
Doing analysis at TEMP = 123.429720 and TNOM = 27.000000

Using KLU as Direct Linear Solver
 Reference value :  1.33214e-08
 Reference value :  5.99275e-08
 Reference value :  1.11157e-07
 Reference value :  1.57002e-07
 Reference value :  2.04737e-07
 Reference value :  2.53132e-07
 Reference value :  3.04607e-07
No. of Data Rows : 68032

  Measurements for Transient Analysis

tplh                =  3.18374e-10 targ=  2.84384e-08 trig=  2.81200e-08
tphl                =  1.20807e-09 targ=  1.07568e-07 trig=  1.06360e-07
i_vdd_avg           =  -1.91903e-07 from=  1.00000e-08 to=  3.30002e-07
power_avg_uw        =  3.13879e-01


Total analysis time (seconds) = 1.88011

Total elapsed time (seconds) = 2.057 

Total DRAM available = 16384.000 MB.
DRAM currently available =  153.047 MB.
Maximum ngspice program size =   25.562 MB.
Current ngspice program size =   25.562 MB.

