
Note: Compatibility modes selected: hs a


Circuit: SKY130 library cell nand2_4 A_to_Y__B=1

option SCALE: Scale is set to 1e-06 for instance and model parameters
Doing analysis at TEMP = -0.647145 and TNOM = 27.000000

Using KLU as Direct Linear Solver
 Reference value :  1.57564e-08
 Reference value :  6.53313e-08
 Reference value :  1.09706e-07
 Reference value :  1.56245e-07
 Reference value :  2.01366e-07
 Reference value :  2.48646e-07
 Reference value :  2.92485e-07
No. of Data Rows : 68032

  Measurements for Transient Analysis

tphl                =  -5.42006e-10 targ=  2.82074e-08 trig=  2.87494e-08
tplh                =  7.51456e-10 targ=  1.09000e-07 trig=  1.08248e-07
i_vdd_avg           =  -6.65252e-07 from=  1.00000e-08 to=  3.30000e-07
power_avg_uw        =  1.27980e+00


Total analysis time (seconds) = 1.84884

Total elapsed time (seconds) = 1.997 

Total DRAM available = 16384.000 MB.
DRAM currently available =   94.703 MB.
Maximum ngspice program size =   25.266 MB.
Current ngspice program size =   25.266 MB.

