
Note: Compatibility modes selected: hs a


Circuit: SKY130 library cell nor2_1 A_to_Y__B=0

option SCALE: Scale is set to 1e-06 for instance and model parameters
Doing analysis at TEMP = 24.424414 and TNOM = 27.000000

Using KLU as Direct Linear Solver
 Reference value :  5.64723e-08
 Reference value :  2.10807e-07
No. of Data Rows : 68032

  Measurements for Transient Analysis

tphl                =  2.54831e-10 targ=  2.49672e-08 trig=  2.47124e-08
tplh                =  6.66969e-10 targ=  9.68041e-08 trig=  9.61372e-08
i_vdd_avg           =  -3.98972e-07 from=  1.00000e-08 to=  3.30002e-07
power_avg_uw        =  7.86256e-01


Total analysis time (seconds) = 0.562333

Total elapsed time (seconds) = 0.711 

Total DRAM available = 16384.000 MB.
DRAM currently available =   98.688 MB.
Maximum ngspice program size =   25.078 MB.
Current ngspice program size =   25.078 MB.

