
Note: Compatibility modes selected: hs a


Circuit: SKY130 library cell nand3_1 A_to_Y__B=1,C=1

option SCALE: Scale is set to 1e-06 for instance and model parameters
Doing analysis at TEMP = 24.995340 and TNOM = 27.000000

Using KLU as Direct Linear Solver
 Reference value :  2.70575e-08
 Reference value :  1.27135e-07
 Reference value :  2.20474e-07
 Reference value :  3.19315e-07
No. of Data Rows : 68030

  Measurements for Transient Analysis

tphl                =  1.48672e-09 targ=  2.96375e-08 trig=  2.81507e-08
tplh                =  2.74647e-09 targ=  1.09199e-07 trig=  1.06452e-07
i_vdd_avg           =  -2.35066e-06 from=  1.00000e-08 to=  3.30000e-07
power_avg_uw        =  4.47309e+00


Total analysis time (seconds) = 0.904605

Total elapsed time (seconds) = 1.071 

Total DRAM available = 16384.000 MB.
DRAM currently available =  179.109 MB.
Maximum ngspice program size =   25.750 MB.
Current ngspice program size =   25.750 MB.

