
Note: Compatibility modes selected: hs a


Circuit: SKY130 library cell nand2_4 A_to_Y__B=1

option SCALE: Scale is set to 1e-06 for instance and model parameters
Doing analysis at TEMP = 108.784510 and TNOM = 27.000000

Using KLU as Direct Linear Solver
 Reference value :  1.55464e-08
 Reference value :  6.04453e-08
 Reference value :  1.06483e-07
 Reference value :  1.53633e-07
 Reference value :  2.00670e-07
 Reference value :  2.47000e-07
 Reference value :  2.93058e-07
 Reference value :  3.35913e-07
No. of Data Rows : 68034

  Measurements for Transient Analysis

tphl                =  8.72082e-10 targ=  2.67285e-08 trig=  2.58564e-08
tplh                =  1.08715e-09 targ=  1.00656e-07 trig=  9.95693e-08
i_vdd_avg           =  -9.25223e-07 from=  1.00000e-08 to=  3.30003e-07
power_avg_uw        =  1.54545e+00


Total analysis time (seconds) = 1.88066

Total elapsed time (seconds) = 2.038 

Total DRAM available = 16384.000 MB.
DRAM currently available =   94.703 MB.
Maximum ngspice program size =   25.172 MB.
Current ngspice program size =   25.172 MB.

