
Note: Compatibility modes selected: hs a


Circuit: SKY130 library cell nand2_1 A_to_Y__B=1

option SCALE: Scale is set to 1e-06 for instance and model parameters
Doing analysis at TEMP = 33.230478 and TNOM = 27.000000

Using KLU as Direct Linear Solver
 Reference value :  6.51439e-08
 Reference value :  2.24054e-07
No. of Data Rows : 68030

  Measurements for Transient Analysis

tphl                =  2.28102e-09 targ=  2.99392e-08 trig=  2.76582e-08
tplh                =  3.49300e-09 targ=  1.08468e-07 trig=  1.04975e-07
i_vdd_avg           =  -1.66013e-06 from=  1.00000e-08 to=  3.30000e-07
power_avg_uw        =  2.74401e+00


Total analysis time (seconds) = 0.549188

Total elapsed time (seconds) = 0.695 

Total DRAM available = 16384.000 MB.
DRAM currently available =  126.391 MB.
Maximum ngspice program size =   24.156 MB.
Current ngspice program size =   24.156 MB.

