
Note: Compatibility modes selected: hs a


Circuit: SKY130 library cell inv_1 A_to_Y

option SCALE: Scale is set to 1e-06 for instance and model parameters
Doing analysis at TEMP = -27.442075 and TNOM = 27.000000

Using KLU as Direct Linear Solver
 Reference value :  9.90867e-08
No. of Data Rows : 68032

  Measurements for Transient Analysis

tphl                =  1.54146e-09 targ=  2.78986e-08 trig=  2.63571e-08
tplh                =  2.80175e-09 targ=  1.03873e-07 trig=  1.01071e-07
i_vdd_avg           =  -1.15255e-06 from=  1.00000e-08 to=  3.30001e-07
power_avg_uw        =  2.00728e+00


Total analysis time (seconds) = 0.29685

Total elapsed time (seconds) = 0.454 

Total DRAM available = 16384.000 MB.
DRAM currently available =  199.781 MB.
Maximum ngspice program size =   25.922 MB.
Current ngspice program size =   25.922 MB.

