
Note: Compatibility modes selected: hs a


Circuit: SKY130 library cell oai21_4 A1_to_Y__A2=0,B1=1

option SCALE: Scale is set to 1e-06 for instance and model parameters
Doing analysis at TEMP = 65.539439 and TNOM = 27.000000

Using KLU as Direct Linear Solver
 Reference value :  8.09640e-09
 Reference value :  3.60973e-08
 Reference value :  6.36673e-08
 Reference value :  9.13223e-08
 Reference value :  1.18882e-07
 Reference value :  1.46112e-07
 Reference value :  1.73182e-07
 Reference value :  2.02142e-07
 Reference value :  2.29972e-07
 Reference value :  2.58232e-07
 Reference value :  2.86787e-07
 Reference value :  3.15862e-07
No. of Data Rows : 68032

  Measurements for Transient Analysis

tphl                =  5.56582e-10 targ=  2.59740e-08 trig=  2.54174e-08
tplh                =  1.01872e-09 targ=  9.92709e-08 trig=  9.82521e-08
i_vdd_avg           =  -1.30576e-06 from=  1.00000e-08 to=  3.30002e-07
power_avg_uw        =  2.52933e+00


Total analysis time (seconds) = 3.07759

Total elapsed time (seconds) = 3.248 

Total DRAM available = 16384.000 MB.
DRAM currently available =  131.406 MB.
Maximum ngspice program size =   26.797 MB.
Current ngspice program size =   26.797 MB.

