
Note: Compatibility modes selected: hs a


Circuit: SKY130 library cell mux2_4 A0_to_X__A1=0,S=0

option SCALE: Scale is set to 1e-06 for instance and model parameters
Doing analysis at TEMP = 90.289440 and TNOM = 27.000000

Using KLU as Direct Linear Solver
 Reference value :  1.18364e-08
 Reference value :  4.84035e-08
 Reference value :  8.42385e-08
 Reference value :  1.20395e-07
 Reference value :  1.56315e-07
 Reference value :  1.93078e-07
 Reference value :  2.29804e-07
 Reference value :  2.65299e-07
 Reference value :  3.00730e-07
 Reference value :  3.36555e-07
No. of Data Rows : 68032

  Measurements for Transient Analysis

tplh                =  1.16491e-12 targ=  2.86267e-08 trig=  2.86255e-08
tphl                =  1.23383e-09 targ=  1.09110e-07 trig=  1.07877e-07
i_vdd_avg           =  -1.04289e-06 from=  1.00000e-08 to=  3.30005e-07
power_avg_uw        =  1.75850e+00


Total analysis time (seconds) = 2.40336

Total elapsed time (seconds) = 2.565 

Total DRAM available = 16384.000 MB.
DRAM currently available =  172.859 MB.
Maximum ngspice program size =   29.406 MB.
Current ngspice program size =   29.406 MB.

