
Note: Compatibility modes selected: hs a


Circuit: SKY130 library cell inv_4 A_to_Y

option SCALE: Scale is set to 1e-06 for instance and model parameters
Doing analysis at TEMP = 122.764680 and TNOM = 27.000000

Using KLU as Direct Linear Solver
 Reference value :  4.33249e-08
 Reference value :  1.40192e-07
 Reference value :  2.39720e-07
 Reference value :  3.28927e-07
No. of Data Rows : 68030

  Measurements for Transient Analysis

tphl                =  9.28650e-10 targ=  2.80573e-08 trig=  2.71287e-08
tplh                =  1.47847e-09 targ=  1.04865e-07 trig=  1.03386e-07
i_vdd_avg           =  -1.89503e-06 from=  1.00000e-08 to=  3.30002e-07
power_avg_uw        =  3.50883e+00


Total analysis time (seconds) = 0.887018

Total elapsed time (seconds) = 1.036 

Total DRAM available = 16384.000 MB.
DRAM currently available =  123.969 MB.
Maximum ngspice program size =   25.828 MB.
Current ngspice program size =   25.828 MB.

