
Note: Compatibility modes selected: hs a


Circuit: SKY130 library cell nor2_4 A_to_Y__B=0

option SCALE: Scale is set to 1e-06 for instance and model parameters
Doing analysis at TEMP = 113.761090 and TNOM = 27.000000

Using KLU as Direct Linear Solver
 Reference value :  1.42914e-08
 Reference value :  5.74111e-08
 Reference value :  1.02691e-07
 Reference value :  1.46900e-07
 Reference value :  1.91853e-07
 Reference value :  2.37726e-07
 Reference value :  2.80640e-07
 Reference value :  3.22480e-07
No. of Data Rows : 68034

  Measurements for Transient Analysis

tphl                =  6.08146e-10 targ=  2.89850e-08 trig=  2.83768e-08
tplh                =  1.44609e-09 targ=  1.08577e-07 trig=  1.07130e-07
i_vdd_avg           =  -1.57220e-06 from=  1.00000e-08 to=  3.30005e-07
power_avg_uw        =  3.09415e+00


Total analysis time (seconds) = 1.9297

Total elapsed time (seconds) = 2.099 

Total DRAM available = 16384.000 MB.
DRAM currently available =  123.125 MB.
Maximum ngspice program size =   29.125 MB.
Current ngspice program size =   29.125 MB.

