
Note: Compatibility modes selected: hs a


Circuit: SKY130 library cell mux2_1 A0_to_X__A1=0,S=0

option SCALE: Scale is set to 1e-06 for instance and model parameters
Doing analysis at TEMP = 117.708540 and TNOM = 27.000000

Using KLU as Direct Linear Solver
 Reference value :  1.64864e-08
 Reference value :  6.53034e-08
 Reference value :  1.11954e-07
 Reference value :  1.63384e-07
 Reference value :  2.06768e-07
 Reference value :  2.53278e-07
 Reference value :  3.01304e-07
No. of Data Rows : 68032

  Measurements for Transient Analysis

tplh                =  8.05285e-10 targ=  2.71632e-08 trig=  2.63579e-08
tphl                =  1.31646e-09 targ=  1.02390e-07 trig=  1.01074e-07
i_vdd_avg           =  -9.76910e-07 from=  1.00000e-08 to=  3.30004e-07
power_avg_uw        =  1.91769e+00


Total analysis time (seconds) = 1.97115

Total elapsed time (seconds) = 2.138 

Total DRAM available = 16384.000 MB.
DRAM currently available =  129.203 MB.
Maximum ngspice program size =   27.562 MB.
Current ngspice program size =   27.562 MB.

