
Note: Compatibility modes selected: hs a


Circuit: SKY130 library cell aoi21_1 A1_to_Y__A2=1,B1=0

option SCALE: Scale is set to 1e-06 for instance and model parameters
Doing analysis at TEMP = 12.079093 and TNOM = 27.000000

Using KLU as Direct Linear Solver
 Reference value :  3.08240e-08
 Reference value :  1.32001e-07
 Reference value :  2.33139e-07
 Reference value :  3.33136e-07
No. of Data Rows : 68030

  Measurements for Transient Analysis

tphl                =  4.18047e-10 targ=  2.52988e-08 trig=  2.48808e-08
tplh                =  7.71062e-10 targ=  9.74133e-08 trig=  9.66423e-08
i_vdd_avg           =  -2.45222e-07 from=  1.00000e-08 to=  3.30001e-07
power_avg_uw        =  4.75764e-01


Total analysis time (seconds) = 0.855123

Total elapsed time (seconds) = 1.023 

Total DRAM available = 16384.000 MB.
DRAM currently available =  150.328 MB.
Maximum ngspice program size =   27.031 MB.
Current ngspice program size =   27.031 MB.

