
Note: Compatibility modes selected: hs a


Circuit: SKY130 library cell mux2_4 A0_to_X__A1=0,S=0

option SCALE: Scale is set to 1e-06 for instance and model parameters
Doing analysis at TEMP = -7.494218 and TNOM = 27.000000

Using KLU as Direct Linear Solver
 Reference value :  1.11014e-08
 Reference value :  4.84906e-08
 Reference value :  8.40706e-08
 Reference value :  1.17264e-07
 Reference value :  1.52674e-07
 Reference value :  1.89256e-07
 Reference value :  2.24786e-07
 Reference value :  2.60651e-07
 Reference value :  2.98079e-07
 Reference value :  3.36679e-07
No. of Data Rows : 68034

  Measurements for Transient Analysis

tplh                =  7.01351e-10 targ=  2.66954e-08 trig=  2.59941e-08
tphl                =  1.27689e-09 targ=  1.01259e-07 trig=  9.99822e-08
i_vdd_avg           =  -2.04004e-06 from=  1.00000e-08 to=  3.30004e-07
power_avg_uw        =  3.56247e+00


Total analysis time (seconds) = 2.38807

Total elapsed time (seconds) = 2.570 

Total DRAM available = 16384.000 MB.
DRAM currently available =  161.641 MB.
Maximum ngspice program size =   26.188 MB.
Current ngspice program size =   26.188 MB.

