
Note: Compatibility modes selected: hs a


Circuit: SKY130 library cell xor2_4 A_to_X__B=0

option SCALE: Scale is set to 1e-06 for instance and model parameters
Doing analysis at TEMP = 37.476291 and TNOM = 27.000000

Using KLU as Direct Linear Solver
 Reference value :  4.22140e-09
 Reference value :  2.19464e-08
 Reference value :  4.02219e-08
 Reference value :  5.66819e-08
 Reference value :  7.27519e-08
 Reference value :  8.94419e-08
 Reference value :  1.05697e-07
 Reference value :  1.23896e-07
 Reference value :  1.40836e-07
 Reference value :  1.57541e-07
 Reference value :  1.73836e-07
 Reference value :  1.90928e-07
 Reference value :  2.07852e-07
 Reference value :  2.24152e-07
 Reference value :  2.41437e-07
 Reference value :  2.58282e-07
 Reference value :  2.74582e-07
 Reference value :  2.92191e-07
 Reference value :  3.08816e-07
 Reference value :  3.26581e-07
No. of Data Rows : 68032

  Measurements for Transient Analysis

tplh                =  3.99459e-10 targ=  2.98117e-08 trig=  2.94122e-08
tphl                =  1.45563e-09 targ=  1.11692e-07 trig=  1.10237e-07
i_vdd_avg           =  -1.41217e-06 from=  1.00000e-08 to=  3.30001e-07
power_avg_uw        =  2.34189e+00


Total analysis time (seconds) = 5.21288

Total elapsed time (seconds) = 5.401 

Total DRAM available = 16384.000 MB.
DRAM currently available =  137.703 MB.
Maximum ngspice program size =   27.297 MB.
Current ngspice program size =   11.688 MB.

