
Note: Compatibility modes selected: hs a


Circuit: SKY130 library cell nand2_4 A_to_Y__B=1

option SCALE: Scale is set to 1e-06 for instance and model parameters
Doing analysis at TEMP = 35.096986 and TNOM = 27.000000

Using KLU as Direct Linear Solver
 Reference value :  1.72614e-08
 Reference value :  6.22689e-08
 Reference value :  1.09610e-07
 Reference value :  1.56805e-07
 Reference value :  1.99404e-07
 Reference value :  2.46424e-07
 Reference value :  2.90800e-07
 Reference value :  3.38045e-07
No. of Data Rows : 68030

  Measurements for Transient Analysis

tphl                =  5.45332e-10 targ=  2.67211e-08 trig=  2.61757e-08
tplh                =  1.16541e-09 targ=  1.01693e-07 trig=  1.00527e-07
i_vdd_avg           =  -1.58720e-06 from=  1.00000e-08 to=  3.30000e-07
power_avg_uw        =  2.87277e+00


Total analysis time (seconds) = 1.88943

Total elapsed time (seconds) = 2.032 

Total DRAM available = 16384.000 MB.
DRAM currently available =  145.406 MB.
Maximum ngspice program size =   27.391 MB.
Current ngspice program size =   27.391 MB.

