
Note: Compatibility modes selected: hs a


Circuit: SKY130 library cell nor2_4 A_to_Y__B=0

option SCALE: Scale is set to 1e-06 for instance and model parameters
Doing analysis at TEMP = -17.100266 and TNOM = 27.000000

Using KLU as Direct Linear Solver
 Reference value :  1.38264e-08
 Reference value :  5.83901e-08
 Reference value :  1.03700e-07
 Reference value :  1.52148e-07
 Reference value :  1.93685e-07
 Reference value :  2.36925e-07
 Reference value :  2.79183e-07
 Reference value :  3.22903e-07
No. of Data Rows : 68034

  Measurements for Transient Analysis

tphl                =  -1.01068e-10 targ=  2.87052e-08 trig=  2.88063e-08
tplh                =  2.11376e-09 targ=  1.10533e-07 trig=  1.08419e-07
i_vdd_avg           =  -1.37144e-06 from=  1.00000e-08 to=  3.30003e-07
power_avg_uw        =  2.34605e+00


Total analysis time (seconds) = 1.95132

Total elapsed time (seconds) = 2.126 

Total DRAM available = 16384.000 MB.
DRAM currently available =  167.438 MB.
Maximum ngspice program size =   27.438 MB.
Current ngspice program size =   27.438 MB.

