
Note: Compatibility modes selected: hs a


Circuit: SKY130 library cell nand2_4 A_to_Y__B=1

option SCALE: Scale is set to 1e-06 for instance and model parameters
Doing analysis at TEMP = 98.364993 and TNOM = 27.000000

Using KLU as Direct Linear Solver
 Reference value :  1.57114e-08
 Reference value :  6.61173e-08
 Reference value :  1.12232e-07
 Reference value :  1.58457e-07
 Reference value :  2.05452e-07
 Reference value :  2.52537e-07
 Reference value :  2.98092e-07
No. of Data Rows : 68032

  Measurements for Transient Analysis

tphl                =  1.28817e-10 targ=  2.45387e-08 trig=  2.44099e-08
tplh                =  2.34047e-10 targ=  9.54638e-08 trig=  9.52297e-08
i_vdd_avg           =  -7.60760e-07 from=  1.00000e-08 to=  3.30002e-07
power_avg_uw        =  1.36102e+00


Total analysis time (seconds) = 1.83524

Total elapsed time (seconds) = 1.996 

Total DRAM available = 16384.000 MB.
DRAM currently available =  117.984 MB.
Maximum ngspice program size =   27.094 MB.
Current ngspice program size =   27.094 MB.

