
Note: Compatibility modes selected: hs a


Circuit: SKY130 library cell aoi21_1 A1_to_Y__A2=1,B1=0

option SCALE: Scale is set to 1e-06 for instance and model parameters
Doing analysis at TEMP = 57.706027 and TNOM = 27.000000

Using KLU as Direct Linear Solver
 Reference value :  3.11282e-08
 Reference value :  1.36954e-07
 Reference value :  2.33683e-07
 Reference value :  3.30384e-07
No. of Data Rows : 68032

  Measurements for Transient Analysis

tphl                =  1.30261e-09 targ=  2.74405e-08 trig=  2.61378e-08
tplh                =  2.11412e-09 targ=  1.02528e-07 trig=  1.00414e-07
i_vdd_avg           =  -6.01002e-07 from=  1.00000e-08 to=  3.30004e-07
power_avg_uw        =  1.06789e+00


Total analysis time (seconds) = 0.85992

Total elapsed time (seconds) = 1.030 

Total DRAM available = 16384.000 MB.
DRAM currently available =  150.328 MB.
Maximum ngspice program size =   28.281 MB.
Current ngspice program size =   28.281 MB.

