
Note: Compatibility modes selected: hs a


Circuit: SKY130 library cell aoi21_1 A1_to_Y__A2=1,B1=0

option SCALE: Scale is set to 1e-06 for instance and model parameters
Doing analysis at TEMP = -6.889263 and TNOM = 27.000000

Using KLU as Direct Linear Solver
 Reference value :  2.69957e-08
 Reference value :  1.26004e-07
 Reference value :  2.32426e-07
 Reference value :  3.32134e-07
No. of Data Rows : 68034

  Measurements for Transient Analysis

tphl                =  1.33451e-09 targ=  2.66961e-08 trig=  2.53616e-08
tplh                =  3.33156e-09 targ=  1.01416e-07 trig=  9.80848e-08
i_vdd_avg           =  -1.76498e-06 from=  1.00000e-08 to=  3.30004e-07
power_avg_uw        =  3.05690e+00


Total analysis time (seconds) = 0.90407

Total elapsed time (seconds) = 1.067 

Total DRAM available = 16384.000 MB.
DRAM currently available =  129.766 MB.
Maximum ngspice program size =   27.781 MB.
Current ngspice program size =   27.781 MB.

