
Note: Compatibility modes selected: hs a


Circuit: SKY130 library cell nor2_1 A_to_Y__B=0

option SCALE: Scale is set to 1e-06 for instance and model parameters
Doing analysis at TEMP = 95.704993 and TNOM = 27.000000

Using KLU as Direct Linear Solver
 Reference value :  4.74188e-08
 Reference value :  1.93594e-07
No. of Data Rows : 68030

  Measurements for Transient Analysis

tphl                =  8.79810e-10 targ=  2.72980e-08 trig=  2.64182e-08
tplh                =  2.30902e-09 targ=  1.03563e-07 trig=  1.01254e-07
i_vdd_avg           =  -1.92739e-06 from=  1.00000e-08 to=  3.30000e-07
power_avg_uw        =  3.53288e+00


Total analysis time (seconds) = 0.591812

Total elapsed time (seconds) = 0.747 

Total DRAM available = 16384.000 MB.
DRAM currently available =  148.328 MB.
Maximum ngspice program size =   27.297 MB.
Current ngspice program size =   27.297 MB.

