
Note: Compatibility modes selected: hs a


Circuit: SKY130 library cell mux2_4 A0_to_X__A1=0,S=0

option SCALE: Scale is set to 1e-06 for instance and model parameters
Doing analysis at TEMP = 78.011294 and TNOM = 27.000000

Using KLU as Direct Linear Solver
 Reference value :  8.58140e-09
 Reference value :  4.26070e-08
 Reference value :  7.70670e-08
 Reference value :  1.13172e-07
 Reference value :  1.49456e-07
 Reference value :  1.85523e-07
 Reference value :  2.21062e-07
 Reference value :  2.54957e-07
 Reference value :  2.90541e-07
 Reference value :  3.24891e-07
No. of Data Rows : 68032

  Measurements for Transient Analysis

tplh                =  3.76057e-12 targ=  2.97335e-08 trig=  2.97297e-08
tphl                =  1.58156e-09 targ=  1.12771e-07 trig=  1.11189e-07
i_vdd_avg           =  -1.84010e-06 from=  1.00000e-08 to=  3.30001e-07
power_avg_uw        =  3.12367e+00


Total analysis time (seconds) = 2.50027

Total elapsed time (seconds) = 2.671 

Total DRAM available = 16384.000 MB.
DRAM currently available =  161.641 MB.
Maximum ngspice program size =   26.594 MB.
Current ngspice program size =   26.594 MB.

