
Note: Compatibility modes selected: hs a


Circuit: SKY130 library cell mux2_4 A0_to_X__A1=0,S=0

option SCALE: Scale is set to 1e-06 for instance and model parameters
Doing analysis at TEMP = -26.866871 and TNOM = 27.000000

Using KLU as Direct Linear Solver
 Reference value :  9.39140e-09
 Reference value :  4.71473e-08
 Reference value :  8.20723e-08
 Reference value :  1.18417e-07
 Reference value :  1.53692e-07
 Reference value :  1.90067e-07
 Reference value :  2.27177e-07
 Reference value :  2.64432e-07
 Reference value :  2.99697e-07
 Reference value :  3.36077e-07
No. of Data Rows : 68032

  Measurements for Transient Analysis

tplh                =  6.94047e-10 targ=  2.63365e-08 trig=  2.56424e-08
tphl                =  1.18050e-09 targ=  1.00108e-07 trig=  9.89272e-08
i_vdd_avg           =  -2.15746e-06 from=  1.00000e-08 to=  3.30002e-07
power_avg_uw        =  3.80726e+00


Total analysis time (seconds) = 2.39943

Total elapsed time (seconds) = 2.574 

Total DRAM available = 16384.000 MB.
DRAM currently available =  219.922 MB.
Maximum ngspice program size =   25.938 MB.
Current ngspice program size =   25.938 MB.

