
Note: Compatibility modes selected: hs a


Circuit: SKY130 library cell nand3_1 A_to_Y__B=1,C=1

option SCALE: Scale is set to 1e-06 for instance and model parameters
Doing analysis at TEMP = -23.776129 and TNOM = 27.000000

Using KLU as Direct Linear Solver
 Reference value :  3.08925e-08
 Reference value :  1.24429e-07
 Reference value :  2.20133e-07
 Reference value :  3.18124e-07
No. of Data Rows : 68032

  Measurements for Transient Analysis

tphl                =  8.45842e-10 targ=  3.07288e-08 trig=  2.98829e-08
tplh                =  3.07283e-09 targ=  1.14722e-07 trig=  1.11649e-07
i_vdd_avg           =  -1.34261e-06 from=  1.00000e-08 to=  3.30004e-07
power_avg_uw        =  2.46333e+00


Total analysis time (seconds) = 0.918554

Total elapsed time (seconds) = 1.140 

Total DRAM available = 16384.000 MB.
DRAM currently available =  157.109 MB.
Maximum ngspice program size =   27.312 MB.
Current ngspice program size =   27.312 MB.

