
Note: Compatibility modes selected: hs a


Circuit: SKY130 library cell inv_4 A_to_Y

option SCALE: Scale is set to 1e-06 for instance and model parameters
Doing analysis at TEMP = 70.017228 and TNOM = 27.000000

Using KLU as Direct Linear Solver
 Reference value :  3.62974e-08
 Reference value :  1.36192e-07
 Reference value :  2.30887e-07
 Reference value :  3.25687e-07
No. of Data Rows : 68032

  Measurements for Transient Analysis

tphl                =  7.03193e-10 targ=  2.73407e-08 trig=  2.66375e-08
tplh                =  1.52609e-09 targ=  1.03438e-07 trig=  1.01912e-07
i_vdd_avg           =  -2.07833e-06 from=  1.00000e-08 to=  3.30002e-07
power_avg_uw        =  3.55326e+00


Total analysis time (seconds) = 0.888011

Total elapsed time (seconds) = 1.049 

Total DRAM available = 16384.000 MB.
DRAM currently available =  124.984 MB.
Maximum ngspice program size =   27.266 MB.
Current ngspice program size =   27.266 MB.

