
Note: Compatibility modes selected: hs a


Circuit: SKY130 library cell nand2_1 A_to_Y__B=1

option SCALE: Scale is set to 1e-06 for instance and model parameters
Doing analysis at TEMP = 55.411962 and TNOM = 27.000000

Using KLU as Direct Linear Solver
 Reference value :  5.16041e-08
 Reference value :  2.09084e-07
No. of Data Rows : 68030

  Measurements for Transient Analysis

tphl                =  2.38787e-09 targ=  3.15737e-08 trig=  2.91858e-08
tplh                =  3.45159e-09 targ=  1.13009e-07 trig=  1.09557e-07
i_vdd_avg           =  -1.07304e-06 from=  1.00000e-08 to=  3.30001e-07
power_avg_uw        =  1.97846e+00


Total analysis time (seconds) = 0.56182

Total elapsed time (seconds) = 0.712 

Total DRAM available = 16384.000 MB.
DRAM currently available =  126.391 MB.
Maximum ngspice program size =   25.906 MB.
Current ngspice program size =   25.906 MB.

