Note: Starting dynamic gmin stepping
Note: Dynamic gmin stepping completed

Note: Compatibility modes selected: hs a


Circuit: SKY130 library cell mux2_1 A0_to_X__A1=0,S=0

option SCALE: Scale is set to 1e-06 for instance and model parameters
Doing analysis at TEMP = 9.068649 and TNOM = 27.000000

Using KLU as Direct Linear Solver
 Reference value :  1.75964e-08
 Reference value :  6.37444e-08
 Reference value :  1.08691e-07
 Reference value :  1.54356e-07
 Reference value :  2.03059e-07
 Reference value :  2.49009e-07
 Reference value :  2.95466e-07
No. of Data Rows : 68030

  Measurements for Transient Analysis

tplh                =  -5.19428e-11 targ=  2.61390e-08 trig=  2.61910e-08
tphl                =  6.43040e-10 targ=  1.01216e-07 trig=  1.00573e-07
i_vdd_avg           =  -1.11570e-07 from=  1.00000e-08 to=  3.30001e-07
power_avg_uw        =  1.98261e-01


Total analysis time (seconds) = 1.98663

Total elapsed time (seconds) = 2.210 

Total DRAM available = 16384.000 MB.
DRAM currently available =  129.203 MB.
Maximum ngspice program size =   27.516 MB.
Current ngspice program size =   27.516 MB.

