
Note: Compatibility modes selected: hs a


Circuit: SKY130 library cell nand3_4 A_to_Y__B=1,C=1

option SCALE: Scale is set to 1e-06 for instance and model parameters
Doing analysis at TEMP = 63.256391 and TNOM = 27.000000

Using KLU as Direct Linear Solver
 Reference value :  8.51140e-09
 Reference value :  3.48391e-08
 Reference value :  6.21591e-08
 Reference value :  9.07091e-08
 Reference value :  1.18746e-07
 Reference value :  1.46361e-07
 Reference value :  1.73651e-07
 Reference value :  2.01089e-07
 Reference value :  2.27084e-07
 Reference value :  2.53929e-07
 Reference value :  2.82136e-07
 Reference value :  3.10696e-07
 Reference value :  3.37841e-07
No. of Data Rows : 68030

  Measurements for Transient Analysis

tphl                =  1.29424e-10 targ=  2.48152e-08 trig=  2.46858e-08
tplh                =  2.57027e-10 targ=  9.63144e-08 trig=  9.60574e-08
i_vdd_avg           =  -4.33740e-07 from=  1.00000e-08 to=  3.30001e-07
power_avg_uw        =  8.36243e-01


Total analysis time (seconds) = 3.1203

Total elapsed time (seconds) = 3.289 

Total DRAM available = 16384.000 MB.
DRAM currently available =  153.875 MB.
Maximum ngspice program size =   27.375 MB.
Current ngspice program size =   27.375 MB.

