
Note: Compatibility modes selected: hs a


Circuit: SKY130 library cell mux2_1 A0_to_X__A1=0,S=0

option SCALE: Scale is set to 1e-06 for instance and model parameters
Doing analysis at TEMP = 59.180708 and TNOM = 27.000000

Using KLU as Direct Linear Solver
 Reference value :  1.91014e-08
 Reference value :  7.75484e-08
 Reference value :  1.28259e-07
 Reference value :  1.79994e-07
 Reference value :  2.30803e-07
 Reference value :  2.84339e-07
No. of Data Rows : 68032

  Measurements for Transient Analysis

tplh                =  -2.74758e-11 targ=  2.86480e-08 trig=  2.86755e-08
tphl                =  1.31742e-09 targ=  1.09344e-07 trig=  1.08026e-07
i_vdd_avg           =  -3.60660e-07 from=  1.00000e-08 to=  3.30004e-07
power_avg_uw        =  6.92204e-01


Total analysis time (seconds) = 1.61844

Total elapsed time (seconds) = 1.776 

Total DRAM available = 16384.000 MB.
DRAM currently available =  117.047 MB.
Maximum ngspice program size =   27.812 MB.
Current ngspice program size =   27.812 MB.

