
Note: Compatibility modes selected: hs a


Circuit: SKY130 library cell mux2_4 A0_to_X__A1=0,S=0

option SCALE: Scale is set to 1e-06 for instance and model parameters
Doing analysis at TEMP = 36.661240 and TNOM = 27.000000

Using KLU as Direct Linear Solver
 Reference value :  1.03414e-08
 Reference value :  4.51628e-08
 Reference value :  8.12578e-08
 Reference value :  1.16878e-07
 Reference value :  1.54798e-07
 Reference value :  1.90313e-07
 Reference value :  2.26988e-07
 Reference value :  2.66508e-07
 Reference value :  3.03523e-07
No. of Data Rows : 68032

  Measurements for Transient Analysis

tplh                =  1.83281e-10 targ=  2.48234e-08 trig=  2.46401e-08
tphl                =  4.11052e-10 targ=  9.63315e-08 trig=  9.59204e-08
i_vdd_avg           =  -5.28049e-07 from=  1.00000e-08 to=  3.30003e-07
power_avg_uw        =  9.38267e-01


Total analysis time (seconds) = 2.37936

Total elapsed time (seconds) = 2.554 

Total DRAM available = 16384.000 MB.
DRAM currently available =  189.641 MB.
Maximum ngspice program size =   27.016 MB.
Current ngspice program size =   27.016 MB.

