
Note: Compatibility modes selected: hs a


Circuit: SKY130 library cell nand3_1 A_to_Y__B=1,C=1

option SCALE: Scale is set to 1e-06 for instance and model parameters
Doing analysis at TEMP = 103.573070 and TNOM = 27.000000

Using KLU as Direct Linear Solver
 Reference value :  3.41475e-08
 Reference value :  1.26888e-07
 Reference value :  2.29470e-07
 Reference value :  3.27613e-07
No. of Data Rows : 68034

  Measurements for Transient Analysis

tphl                =  1.01209e-09 targ=  3.03659e-08 trig=  2.93538e-08
tplh                =  1.97714e-09 targ=  1.12039e-07 trig=  1.10061e-07
i_vdd_avg           =  -1.27663e-06 from=  1.00000e-08 to=  3.30003e-07
power_avg_uw        =  2.24652e+00


Total analysis time (seconds) = 0.884016

Total elapsed time (seconds) = 1.062 

Total DRAM available = 16384.000 MB.
DRAM currently available =  139.750 MB.
Maximum ngspice program size =   27.188 MB.
Current ngspice program size =   27.188 MB.

