
Note: Compatibility modes selected: hs a


Circuit: SKY130 library cell xor2_1 A_to_X__B=0

option SCALE: Scale is set to 1e-06 for instance and model parameters
Doing analysis at TEMP = 56.534549 and TNOM = 27.000000

Using KLU as Direct Linear Solver
 Reference value :  2.22414e-08
 Reference value :  8.39476e-08
 Reference value :  1.51493e-07
 Reference value :  2.16693e-07
 Reference value :  2.81163e-07
No. of Data Rows : 68032

  Measurements for Transient Analysis

tplh                =  2.09734e-09 targ=  3.20499e-08 trig=  2.99526e-08
tphl                =  1.95098e-09 targ=  1.13809e-07 trig=  1.11858e-07
i_vdd_avg           =  -9.04535e-07 from=  1.00000e-08 to=  3.30003e-07
power_avg_uw        =  1.56164e+00


Total analysis time (seconds) = 1.34037

Total elapsed time (seconds) = 1.496 

Total DRAM available = 16384.000 MB.
DRAM currently available =  127.406 MB.
Maximum ngspice program size =   26.062 MB.
Current ngspice program size =   26.062 MB.

