
Note: Compatibility modes selected: hs a


Circuit: SKY130 library cell inv_4 A_to_Y

option SCALE: Scale is set to 1e-06 for instance and model parameters
Doing analysis at TEMP = -34.162467 and TNOM = 27.000000

Using KLU as Direct Linear Solver
 Reference value :  4.13112e-08
 Reference value :  1.32845e-07
 Reference value :  2.28291e-07
 Reference value :  3.23985e-07
No. of Data Rows : 68034

  Measurements for Transient Analysis

tphl                =  4.40151e-10 targ=  2.55045e-08 trig=  2.50644e-08
tplh                =  9.07982e-10 targ=  9.81011e-08 trig=  9.71931e-08
i_vdd_avg           =  -1.50407e-06 from=  1.00000e-08 to=  3.30005e-07
power_avg_uw        =  2.94750e+00


Total analysis time (seconds) = 0.906078

Total elapsed time (seconds) = 1.055 

Total DRAM available = 16384.000 MB.
DRAM currently available =  109.312 MB.
Maximum ngspice program size =   25.625 MB.
Current ngspice program size =   25.625 MB.

