
Note: Compatibility modes selected: hs a


Circuit: SKY130 library cell nor2_1 A_to_Y__B=0

option SCALE: Scale is set to 1e-06 for instance and model parameters
Doing analysis at TEMP = -4.898945 and TNOM = 27.000000

Using KLU as Direct Linear Solver
 Reference value :  5.14640e-08
 Reference value :  2.01334e-07
No. of Data Rows : 68030

  Measurements for Transient Analysis

tphl                =  1.19685e-09 targ=  2.85551e-08 trig=  2.73583e-08
tplh                =  3.29154e-09 targ=  1.07366e-07 trig=  1.04075e-07
i_vdd_avg           =  -1.30239e-06 from=  1.00000e-08 to=  3.30001e-07
power_avg_uw        =  2.36288e+00


Total analysis time (seconds) = 0.569288

Total elapsed time (seconds) = 0.729 

Total DRAM available = 16384.000 MB.
DRAM currently available =  148.328 MB.
Maximum ngspice program size =   27.453 MB.
Current ngspice program size =   27.453 MB.

