
Note: Compatibility modes selected: hs a


Circuit: SKY130 library cell nor2_1 A_to_Y__B=0

option SCALE: Scale is set to 1e-06 for instance and model parameters
Doing analysis at TEMP = 54.282658 and TNOM = 27.000000

Using KLU as Direct Linear Solver
 Reference value :  5.55436e-08
 Reference value :  2.08039e-07
No. of Data Rows : 68032

  Measurements for Transient Analysis

tphl                =  1.04616e-09 targ=  2.83292e-08 trig=  2.72830e-08
tplh                =  2.23671e-09 targ=  1.06086e-07 trig=  1.03849e-07
i_vdd_avg           =  -6.23802e-07 from=  1.00000e-08 to=  3.30005e-07
power_avg_uw        =  1.19260e+00


Total analysis time (seconds) = 0.57774

Total elapsed time (seconds) = 0.728 

Total DRAM available = 16384.000 MB.
DRAM currently available =  131.141 MB.
Maximum ngspice program size =   27.109 MB.
Current ngspice program size =   27.109 MB.

