
Note: Compatibility modes selected: hs a


Circuit: SKY130 library cell aoi21_4 A1_to_Y__A2=1,B1=0

option SCALE: Scale is set to 1e-06 for instance and model parameters
Doing analysis at TEMP = 77.174018 and TNOM = 27.000000

Using KLU as Direct Linear Solver
 Reference value :  6.91140e-09
 Reference value :  3.63095e-08
 Reference value :  6.56495e-08
 Reference value :  9.33045e-08
 Reference value :  1.21017e-07
 Reference value :  1.49102e-07
 Reference value :  1.78412e-07
 Reference value :  2.07060e-07
 Reference value :  2.35325e-07
 Reference value :  2.63577e-07
 Reference value :  2.91532e-07
 Reference value :  3.20062e-07
No. of Data Rows : 68030

  Measurements for Transient Analysis

tphl                =  3.36152e-10 targ=  2.46697e-08 trig=  2.43335e-08
tplh                =  6.58199e-10 targ=  9.56587e-08 trig=  9.50005e-08
i_vdd_avg           =  -1.40392e-06 from=  1.00000e-08 to=  3.30002e-07
power_avg_uw        =  2.35395e+00


Total analysis time (seconds) = 3.0641

Total elapsed time (seconds) = 3.239 

Total DRAM available = 16384.000 MB.
DRAM currently available =  125.516 MB.
Maximum ngspice program size =   25.562 MB.
Current ngspice program size =   25.562 MB.

