
Note: Compatibility modes selected: hs a


Circuit: SKY130 library cell oai21_1 A1_to_Y__A2=0,B1=1

option SCALE: Scale is set to 1e-06 for instance and model parameters
Doing analysis at TEMP = -9.498613 and TNOM = 27.000000

Using KLU as Direct Linear Solver
 Reference value :  3.24925e-08
 Reference value :  1.33598e-07
 Reference value :  2.31800e-07
 Reference value :  3.27243e-07
No. of Data Rows : 68034

  Measurements for Transient Analysis

tphl                =  1.11174e-09 targ=  2.97281e-08 trig=  2.86164e-08
tplh                =  3.70347e-09 targ=  1.11553e-07 trig=  1.07849e-07
i_vdd_avg           =  -2.03750e-06 from=  1.00000e-08 to=  3.30003e-07
power_avg_uw        =  3.80382e+00


Total analysis time (seconds) = 0.869697

Total elapsed time (seconds) = 1.036 

Total DRAM available = 16384.000 MB.
DRAM currently available =  120.938 MB.
Maximum ngspice program size =   25.891 MB.
Current ngspice program size =   25.891 MB.

