
Note: Compatibility modes selected: hs a


Circuit: SKY130 library cell aoi21_1 A1_to_Y__A2=1,B1=0

option SCALE: Scale is set to 1e-06 for instance and model parameters
Doing analysis at TEMP = 116.943440 and TNOM = 27.000000

Using KLU as Direct Linear Solver
 Reference value :  3.21743e-08
 Reference value :  1.37216e-07
 Reference value :  2.40154e-07
 Reference value :  3.35541e-07
No. of Data Rows : 68030

  Measurements for Transient Analysis

tphl                =  1.71640e-09 targ=  2.76673e-08 trig=  2.59509e-08
tplh                =  2.89241e-09 targ=  1.02745e-07 trig=  9.98527e-08
i_vdd_avg           =  -2.21353e-06 from=  1.00000e-08 to=  3.30001e-07
power_avg_uw        =  4.11488e+00


Total analysis time (seconds) = 0.849863

Total elapsed time (seconds) = 1.013 

Total DRAM available = 16384.000 MB.
DRAM currently available =  169.766 MB.
Maximum ngspice program size =   26.422 MB.
Current ngspice program size =   26.422 MB.

