
Note: Compatibility modes selected: hs a


Circuit: SKY130 library cell xor2_1 A_to_X__B=0

option SCALE: Scale is set to 1e-06 for instance and model parameters
Doing analysis at TEMP = 62.643133 and TNOM = 27.000000

Using KLU as Direct Linear Solver
 Reference value :  2.11864e-08
 Reference value :  8.78396e-08
 Reference value :  1.53457e-07
 Reference value :  2.19475e-07
 Reference value :  2.88167e-07
No. of Data Rows : 68030

  Measurements for Transient Analysis

tplh                =  2.58824e-10 targ=  2.99899e-08 trig=  2.97310e-08
tphl                =  1.31410e-09 targ=  1.12507e-07 trig=  1.11193e-07
i_vdd_avg           =  -1.01060e-06 from=  1.00000e-08 to=  3.30002e-07
power_avg_uw        =  1.94004e+00


Total analysis time (seconds) = 1.2979

Total elapsed time (seconds) = 1.464 

Total DRAM available = 16384.000 MB.
DRAM currently available =  166.766 MB.
Maximum ngspice program size =   26.531 MB.
Current ngspice program size =   26.531 MB.

