
Note: Compatibility modes selected: hs a


Circuit: SKY130 library cell oai21_1 A1_to_Y__A2=0,B1=1

option SCALE: Scale is set to 1e-06 for instance and model parameters
Doing analysis at TEMP = 69.423488 and TNOM = 27.000000

Using KLU as Direct Linear Solver
 Reference value :  2.96377e-08
 Reference value :  1.26703e-07
 Reference value :  2.23508e-07
 Reference value :  3.25993e-07
No. of Data Rows : 68032

  Measurements for Transient Analysis

tphl                =  1.49064e-09 targ=  2.70882e-08 trig=  2.55976e-08
tplh                =  2.86057e-09 targ=  1.01653e-07 trig=  9.87927e-08
i_vdd_avg           =  -1.74259e-06 from=  1.00000e-08 to=  3.30003e-07
power_avg_uw        =  3.43184e+00


Total analysis time (seconds) = 0.875164

Total elapsed time (seconds) = 1.043 

Total DRAM available = 16384.000 MB.
DRAM currently available =  124.594 MB.
Maximum ngspice program size =   26.172 MB.
Current ngspice program size =   26.172 MB.

