
Note: Compatibility modes selected: hs a


Circuit: SKY130 library cell nor2_1 A_to_Y__B=0

option SCALE: Scale is set to 1e-06 for instance and model parameters
Doing analysis at TEMP = -35.606452 and TNOM = 27.000000

Using KLU as Direct Linear Solver
 Reference value :  5.12226e-08
 Reference value :  1.98963e-07
 Reference value :  3.38653e-07
No. of Data Rows : 68032

  Measurements for Transient Analysis

tphl                =  5.42285e-10 targ=  2.46823e-08 trig=  2.41401e-08
tplh                =  3.66268e-09 targ=  9.80828e-08 trig=  9.44202e-08
i_vdd_avg           =  -1.34624e-06 from=  1.00000e-08 to=  3.30003e-07
power_avg_uw        =  2.27621e+00


Total analysis time (seconds) = 0.61224

Total elapsed time (seconds) = 0.758 

Total DRAM available = 16384.000 MB.
DRAM currently available =   87.938 MB.
Maximum ngspice program size =   24.438 MB.
Current ngspice program size =   24.438 MB.

