
Note: Compatibility modes selected: hs a


Circuit: SKY130 library cell oai21_4 A1_to_Y__A2=0,B1=1

option SCALE: Scale is set to 1e-06 for instance and model parameters
Doing analysis at TEMP = -14.905594 and TNOM = 27.000000

Using KLU as Direct Linear Solver
 Reference value :  7.89140e-09
 Reference value :  3.53380e-08
 Reference value :  6.52380e-08
 Reference value :  9.52980e-08
 Reference value :  1.22573e-07
 Reference value :  1.49678e-07
 Reference value :  1.77003e-07
 Reference value :  2.02643e-07
 Reference value :  2.31453e-07
 Reference value :  2.58723e-07
 Reference value :  2.86163e-07
 Reference value :  3.12763e-07
No. of Data Rows : 68032

  Measurements for Transient Analysis

tphl                =  1.14676e-09 targ=  2.89045e-08 trig=  2.77577e-08
tplh                =  2.53202e-09 targ=  1.07805e-07 trig=  1.05273e-07
i_vdd_avg           =  -1.04635e-06 from=  1.00000e-08 to=  3.30003e-07
power_avg_uw        =  1.83900e+00


Total analysis time (seconds) = 3.2108

Total elapsed time (seconds) = 3.385 

Total DRAM available = 16384.000 MB.
DRAM currently available =  120.453 MB.
Maximum ngspice program size =   27.516 MB.
Current ngspice program size =   27.516 MB.

