
Note: Compatibility modes selected: hs a


Circuit: SKY130 library cell nor2_1 A_to_Y__B=0

option SCALE: Scale is set to 1e-06 for instance and model parameters
Doing analysis at TEMP = -25.532085 and TNOM = 27.000000

Using KLU as Direct Linear Solver
 Reference value :  4.89734e-08
 Reference value :  2.00068e-07
No. of Data Rows : 68032

  Measurements for Transient Analysis

tphl                =  3.01247e-10 targ=  2.45292e-08 trig=  2.42280e-08
tplh                =  1.32113e-09 targ=  9.60050e-08 trig=  9.46839e-08
i_vdd_avg           =  -9.19168e-07 from=  1.00000e-08 to=  3.30004e-07
power_avg_uw        =  1.52253e+00


Total analysis time (seconds) = 0.567167

Total elapsed time (seconds) = 0.734 

Total DRAM available = 16384.000 MB.
DRAM currently available =  131.141 MB.
Maximum ngspice program size =   26.156 MB.
Current ngspice program size =   26.156 MB.

