
Note: Compatibility modes selected: hs a


Circuit: SKY130 library cell nand3_4 A_to_Y__B=1,C=1

option SCALE: Scale is set to 1e-06 for instance and model parameters
Doing analysis at TEMP = 11.524421 and TNOM = 27.000000

Using KLU as Direct Linear Solver
 Reference value :  7.85140e-09
 Reference value :  3.62977e-08
 Reference value :  6.45977e-08
 Reference value :  9.22827e-08
 Reference value :  1.19818e-07
 Reference value :  1.47013e-07
 Reference value :  1.73573e-07
 Reference value :  2.00273e-07
 Reference value :  2.27138e-07
 Reference value :  2.55568e-07
 Reference value :  2.84193e-07
 Reference value :  3.11083e-07
 Reference value :  3.39273e-07
No. of Data Rows : 68032

  Measurements for Transient Analysis

tphl                =  1.71755e-10 targ=  2.91168e-08 trig=  2.89451e-08
tplh                =  1.72563e-09 targ=  1.10561e-07 trig=  1.08835e-07
i_vdd_avg           =  -3.51958e-06 from=  1.00000e-08 to=  3.30003e-07
power_avg_uw        =  6.71154e+00


Total analysis time (seconds) = 3.11246

Total elapsed time (seconds) = 3.285 

Total DRAM available = 16384.000 MB.
DRAM currently available =  128.016 MB.
Maximum ngspice program size =   27.406 MB.
Current ngspice program size =   27.406 MB.

