
Note: Compatibility modes selected: hs a


Circuit: SKY130 library cell xor2_1 A_to_X__B=0

option SCALE: Scale is set to 1e-06 for instance and model parameters
Doing analysis at TEMP = 15.336635 and TNOM = 27.000000

Using KLU as Direct Linear Solver
 Reference value :  2.25264e-08
 Reference value :  8.75022e-08
 Reference value :  1.55417e-07
 Reference value :  2.22122e-07
 Reference value :  2.87902e-07
No. of Data Rows : 68032

  Measurements for Transient Analysis

tplh                =  3.55270e-09 targ=  2.97876e-08 trig=  2.62349e-08
tphl                =  1.58039e-09 targ=  1.02285e-07 trig=  1.00705e-07
i_vdd_avg           =  -1.61683e-06 from=  1.00000e-08 to=  3.30002e-07
power_avg_uw        =  2.83138e+00


Total analysis time (seconds) = 1.30213

Total elapsed time (seconds) = 1.455 

Total DRAM available = 16384.000 MB.
DRAM currently available =  130.062 MB.
Maximum ngspice program size =   23.906 MB.
Current ngspice program size =   23.906 MB.

