
Note: Compatibility modes selected: hs a


Circuit: SKY130 library cell aoi21_4 A1_to_Y__A2=1,B1=0

option SCALE: Scale is set to 1e-06 for instance and model parameters
Doing analysis at TEMP = -0.531338 and TNOM = 27.000000

Using KLU as Direct Linear Solver
 Reference value :  7.09640e-09
 Reference value :  3.35825e-08
 Reference value :  6.35644e-08
 Reference value :  9.15044e-08
 Reference value :  1.19606e-07
 Reference value :  1.47181e-07
 Reference value :  1.74821e-07
 Reference value :  2.02729e-07
 Reference value :  2.29944e-07
 Reference value :  2.58659e-07
 Reference value :  2.87431e-07
 Reference value :  3.15986e-07
No. of Data Rows : 68030

  Measurements for Transient Analysis

tphl                =  1.77437e-09 targ=  3.17703e-08 trig=  2.99959e-08
tplh                =  3.79576e-09 targ=  1.15784e-07 trig=  1.11988e-07
i_vdd_avg           =  -1.65106e-06 from=  1.00000e-08 to=  3.30001e-07
power_avg_uw        =  2.91158e+00


Total analysis time (seconds) = 3.07461

Total elapsed time (seconds) = 3.259 

Total DRAM available = 16384.000 MB.
DRAM currently available =  142.641 MB.
Maximum ngspice program size =   28.500 MB.
Current ngspice program size =   28.500 MB.

