
Note: Compatibility modes selected: hs a


Circuit: SKY130 library cell oai21_1 A1_to_Y__A2=0,B1=1

option SCALE: Scale is set to 1e-06 for instance and model parameters
Doing analysis at TEMP = -17.130090 and TNOM = 27.000000

Using KLU as Direct Linear Solver
 Reference value :  3.09474e-08
 Reference value :  1.32707e-07
 Reference value :  2.35632e-07
 Reference value :  3.30322e-07
No. of Data Rows : 68032

  Measurements for Transient Analysis

tphl                =  8.92918e-10 targ=  2.49179e-08 trig=  2.40250e-08
tplh                =  3.19694e-09 targ=  9.72718e-08 trig=  9.40749e-08
i_vdd_avg           =  -1.80950e-06 from=  1.00000e-08 to=  3.30002e-07
power_avg_uw        =  3.34113e+00


Total analysis time (seconds) = 0.871966

Total elapsed time (seconds) = 1.040 

Total DRAM available = 16384.000 MB.
DRAM currently available =  101.594 MB.
Maximum ngspice program size =   26.609 MB.
Current ngspice program size =   26.609 MB.

