
Note: Compatibility modes selected: hs a


Circuit: SKY130 library cell nand2_1 A_to_Y__B=1

option SCALE: Scale is set to 1e-06 for instance and model parameters
Doing analysis at TEMP = 4.946299 and TNOM = 27.000000

Using KLU as Direct Linear Solver
 Reference value :  7.59471e-08
 Reference value :  2.46407e-07
No. of Data Rows : 68032

  Measurements for Transient Analysis

tphl                =  9.14263e-10 targ=  3.07990e-08 trig=  2.98848e-08
tplh                =  2.73966e-09 targ=  1.14394e-07 trig=  1.11654e-07
i_vdd_avg           =  -3.72944e-07 from=  1.00000e-08 to=  3.30002e-07
power_avg_uw        =  6.28159e-01


Total analysis time (seconds) = 0.50885

Total elapsed time (seconds) = 0.640 

Total DRAM available = 16384.000 MB.
DRAM currently available =  150.172 MB.
Maximum ngspice program size =   25.828 MB.
Current ngspice program size =   25.828 MB.

