
Note: Compatibility modes selected: hs a


Circuit: SKY130 library cell aoi21_1 A1_to_Y__A2=1,B1=0

option SCALE: Scale is set to 1e-06 for instance and model parameters
Doing analysis at TEMP = 20.466094 and TNOM = 27.000000

Using KLU as Direct Linear Solver
 Reference value :  2.52825e-08
 Reference value :  1.19420e-07
 Reference value :  2.16746e-07
 Reference value :  3.16860e-07
No. of Data Rows : 68034

  Measurements for Transient Analysis

tphl                =  2.52849e-09 targ=  3.11128e-08 trig=  2.85843e-08
tplh                =  4.54478e-09 targ=  1.12298e-07 trig=  1.07753e-07
i_vdd_avg           =  -1.49697e-06 from=  1.00000e-08 to=  3.30005e-07
power_avg_uw        =  2.82336e+00


Total analysis time (seconds) = 0.883048

Total elapsed time (seconds) = 1.067 

Total DRAM available = 16384.000 MB.
DRAM currently available =  133.797 MB.
Maximum ngspice program size =   25.609 MB.
Current ngspice program size =   25.609 MB.

