
Note: Compatibility modes selected: hs a


Circuit: SKY130 library cell nand3_1 A_to_Y__B=1,C=1

option SCALE: Scale is set to 1e-06 for instance and model parameters
Doing analysis at TEMP = 75.733927 and TNOM = 27.000000

Using KLU as Direct Linear Solver
 Reference value :  4.17052e-08
 Reference value :  1.38608e-07
 Reference value :  2.44245e-07
No. of Data Rows : 68034

  Measurements for Transient Analysis

tphl                =  1.08965e-09 targ=  3.04185e-08 trig=  2.93288e-08
tplh                =  2.25217e-09 targ=  1.12239e-07 trig=  1.09986e-07
i_vdd_avg           =  -2.15467e-06 from=  1.00000e-08 to=  3.30003e-07
power_avg_uw        =  4.26483e+00


Total analysis time (seconds) = 0.870171

Total elapsed time (seconds) = 1.010 

Total DRAM available = 16384.000 MB.
DRAM currently available =  164.547 MB.
Maximum ngspice program size =   26.453 MB.
Current ngspice program size =   26.453 MB.

