
Note: Compatibility modes selected: hs a


Circuit: SKY130 library cell mux2_4 A0_to_X__A1=0,S=0

option SCALE: Scale is set to 1e-06 for instance and model parameters
Doing analysis at TEMP = -32.520676 and TNOM = 27.000000

Using KLU as Direct Linear Solver
 Reference value :  1.04764e-08
 Reference value :  4.61303e-08
 Reference value :  8.19103e-08
 Reference value :  1.19738e-07
 Reference value :  1.55858e-07
 Reference value :  1.93190e-07
 Reference value :  2.28565e-07
 Reference value :  2.65213e-07
 Reference value :  3.01328e-07
 Reference value :  3.37858e-07
No. of Data Rows : 68034

  Measurements for Transient Analysis

tplh                =  6.17699e-10 targ=  2.60716e-08 trig=  2.54539e-08
tphl                =  1.15670e-09 targ=  9.95184e-08 trig=  9.83617e-08
i_vdd_avg           =  -9.77315e-07 from=  1.00000e-08 to=  3.30003e-07
power_avg_uw        =  1.62386e+00


Total analysis time (seconds) = 2.3638

Total elapsed time (seconds) = 2.542 

Total DRAM available = 16384.000 MB.
DRAM currently available =  113.406 MB.
Maximum ngspice program size =   25.594 MB.
Current ngspice program size =   25.594 MB.

