
Note: Compatibility modes selected: hs a


Circuit: SKY130 library cell oai21_1 A1_to_Y__A2=0,B1=1

option SCALE: Scale is set to 1e-06 for instance and model parameters
Doing analysis at TEMP = 116.593470 and TNOM = 27.000000

Using KLU as Direct Linear Solver
 Reference value :  2.93975e-08
 Reference value :  1.31956e-07
 Reference value :  2.25947e-07
 Reference value :  3.27911e-07
No. of Data Rows : 68032

  Measurements for Transient Analysis

tphl                =  1.40783e-09 targ=  2.90549e-08 trig=  2.76471e-08
tplh                =  2.64436e-09 targ=  1.07586e-07 trig=  1.04941e-07
i_vdd_avg           =  -1.25089e-06 from=  1.00000e-08 to=  3.30001e-07
power_avg_uw        =  2.24952e+00


Total analysis time (seconds) = 0.89305

Total elapsed time (seconds) = 1.064 

Total DRAM available = 16384.000 MB.
DRAM currently available =   48.703 MB.
Maximum ngspice program size =   26.797 MB.
Current ngspice program size =   26.797 MB.

