
Note: Compatibility modes selected: hs a


Circuit: SKY130 library cell inv_1 A_to_Y

option SCALE: Scale is set to 1e-06 for instance and model parameters
Doing analysis at TEMP = 63.102943 and TNOM = 27.000000

Using KLU as Direct Linear Solver
 Reference value :  1.24265e-07
No. of Data Rows : 68032

  Measurements for Transient Analysis

tphl                =  9.41400e-10 targ=  2.94569e-08 trig=  2.85155e-08
tplh                =  2.69333e-09 targ=  1.10240e-07 trig=  1.07547e-07
i_vdd_avg           =  -1.53217e-06 from=  1.00000e-08 to=  3.30005e-07
power_avg_uw        =  2.60004e+00


Total analysis time (seconds) = 0.319761

Total elapsed time (seconds) = 0.453 

Total DRAM available = 16384.000 MB.
DRAM currently available =  132.047 MB.
Maximum ngspice program size =   26.281 MB.
Current ngspice program size =   26.281 MB.

