
Note: Compatibility modes selected: hs a


Circuit: SKY130 library cell nand3_1 A_to_Y__B=1,C=1

option SCALE: Scale is set to 1e-06 for instance and model parameters
Doing analysis at TEMP = 84.159139 and TNOM = 27.000000

Using KLU as Direct Linear Solver
 Reference value :  3.12313e-08
 Reference value :  1.27015e-07
 Reference value :  2.25181e-07
 Reference value :  3.22035e-07
No. of Data Rows : 68032

  Measurements for Transient Analysis

tphl                =  2.55319e-10 targ=  2.43347e-08 trig=  2.40794e-08
tplh                =  2.37971e-10 targ=  9.44762e-08 trig=  9.42382e-08
i_vdd_avg           =  -3.83359e-07 from=  1.00000e-08 to=  3.30000e-07
power_avg_uw        =  7.08567e-01


Total analysis time (seconds) = 0.905987

Total elapsed time (seconds) = 1.083 

Total DRAM available = 16384.000 MB.
DRAM currently available =  179.109 MB.
Maximum ngspice program size =   27.328 MB.
Current ngspice program size =   27.328 MB.

