
Note: Compatibility modes selected: hs a


Circuit: SKY130 library cell nand2_4 A_to_Y__B=1

option SCALE: Scale is set to 1e-06 for instance and model parameters
Doing analysis at TEMP = 103.011540 and TNOM = 27.000000

Using KLU as Direct Linear Solver
 Reference value :  1.47164e-08
 Reference value :  6.25319e-08
 Reference value :  1.10711e-07
 Reference value :  1.55511e-07
 Reference value :  2.00002e-07
 Reference value :  2.46977e-07
 Reference value :  2.94861e-07
No. of Data Rows : 68032

  Measurements for Transient Analysis

tphl                =  1.94868e-10 targ=  2.68446e-08 trig=  2.66497e-08
tplh                =  6.24532e-10 targ=  1.02574e-07 trig=  1.01949e-07
i_vdd_avg           =  -6.35645e-07 from=  1.00000e-08 to=  3.30001e-07
power_avg_uw        =  1.08802e+00


Total analysis time (seconds) = 1.84817

Total elapsed time (seconds) = 2.007 

Total DRAM available = 16384.000 MB.
DRAM currently available =  101.484 MB.
Maximum ngspice program size =   28.891 MB.
Current ngspice program size =   28.891 MB.

