
Note: Compatibility modes selected: hs a


Circuit: SKY130 library cell mux2_4 A0_to_X__A1=0,S=0

option SCALE: Scale is set to 1e-06 for instance and model parameters
Doing analysis at TEMP = 62.109589 and TNOM = 27.000000

Using KLU as Direct Linear Solver
 Reference value :  9.88640e-09
 Reference value :  4.65038e-08
 Reference value :  8.21388e-08
 Reference value :  1.17395e-07
 Reference value :  1.51955e-07
 Reference value :  1.88053e-07
 Reference value :  2.23084e-07
 Reference value :  2.61694e-07
 Reference value :  2.99310e-07
 Reference value :  3.36920e-07
No. of Data Rows : 68030

  Measurements for Transient Analysis

tplh                =  1.69339e-09 targ=  2.88266e-08 trig=  2.71332e-08
tphl                =  2.19088e-09 targ=  1.05590e-07 trig=  1.03399e-07
i_vdd_avg           =  -2.21702e-06 from=  1.00000e-08 to=  3.30000e-07
power_avg_uw        =  3.60831e+00


Total analysis time (seconds) = 2.41294

Total elapsed time (seconds) = 2.598 

Total DRAM available = 16384.000 MB.
DRAM currently available =  145.984 MB.
Maximum ngspice program size =   29.250 MB.
Current ngspice program size =   29.250 MB.

