
Note: Compatibility modes selected: hs a


Circuit: SKY130 library cell inv_1 A_to_Y

option SCALE: Scale is set to 1e-06 for instance and model parameters
Doing analysis at TEMP = -31.771370 and TNOM = 27.000000

Using KLU as Direct Linear Solver
 Reference value :  1.42557e-07
No. of Data Rows : 68030

  Measurements for Transient Analysis

tphl                =  8.05027e-11 targ=  2.87840e-08 trig=  2.87035e-08
tplh                =  1.36631e-09 targ=  1.09477e-07 trig=  1.08111e-07
i_vdd_avg           =  -1.01222e-07 from=  1.00000e-08 to=  3.30002e-07
power_avg_uw        =  2.00202e-01


Total analysis time (seconds) = 0.305264

Total elapsed time (seconds) = 0.450 

Total DRAM available = 16384.000 MB.
DRAM currently available =  199.781 MB.
Maximum ngspice program size =   26.156 MB.
Current ngspice program size =   26.156 MB.

