
Note: Compatibility modes selected: hs a


Circuit: SKY130 library cell aoi21_1 A1_to_Y__A2=1,B1=0

option SCALE: Scale is set to 1e-06 for instance and model parameters
Doing analysis at TEMP = 99.929984 and TNOM = 27.000000

Using KLU as Direct Linear Solver
 Reference value :  2.47875e-08
 Reference value :  1.23845e-07
 Reference value :  2.22129e-07
 Reference value :  3.29355e-07
No. of Data Rows : 68030

  Measurements for Transient Analysis

tphl                =  9.21432e-10 targ=  2.74996e-08 trig=  2.65782e-08
tplh                =  1.69145e-09 targ=  1.03426e-07 trig=  1.01735e-07
i_vdd_avg           =  -9.60303e-07 from=  1.00000e-08 to=  3.30000e-07
power_avg_uw        =  1.86021e+00


Total analysis time (seconds) = 0.851361

Total elapsed time (seconds) = 1.031 

Total DRAM available = 16384.000 MB.
DRAM currently available =  169.766 MB.
Maximum ngspice program size =   26.344 MB.
Current ngspice program size =   26.344 MB.

