
Note: Compatibility modes selected: hs a


Circuit: SKY130 library cell aoi21_4 A1_to_Y__A2=1,B1=0

option SCALE: Scale is set to 1e-06 for instance and model parameters
Doing analysis at TEMP = -3.403881 and TNOM = 27.000000

Using KLU as Direct Linear Solver
 Reference value :  8.71140e-09
 Reference value :  3.99429e-08
 Reference value :  6.90429e-08
 Reference value :  9.75529e-08
 Reference value :  1.26638e-07
 Reference value :  1.54643e-07
 Reference value :  1.83863e-07
 Reference value :  2.11713e-07
 Reference value :  2.37618e-07
 Reference value :  2.65568e-07
 Reference value :  2.94208e-07
 Reference value :  3.22228e-07
No. of Data Rows : 68032

  Measurements for Transient Analysis

tphl                =  2.01492e-10 targ=  2.84892e-08 trig=  2.82877e-08
tplh                =  1.64119e-09 targ=  1.08504e-07 trig=  1.06863e-07
i_vdd_avg           =  -8.74266e-07 from=  1.00000e-08 to=  3.30003e-07
power_avg_uw        =  1.60145e+00


Total analysis time (seconds) = 3.06627

Total elapsed time (seconds) = 3.237 

Total DRAM available = 16384.000 MB.
DRAM currently available =  142.641 MB.
Maximum ngspice program size =   24.891 MB.
Current ngspice program size =   24.891 MB.

