
Note: Compatibility modes selected: hs a


Circuit: SKY130 library cell oai21_1 A1_to_Y__A2=0,B1=1

option SCALE: Scale is set to 1e-06 for instance and model parameters
Doing analysis at TEMP = 59.057100 and TNOM = 27.000000

Using KLU as Direct Linear Solver
 Reference value :  2.89075e-08
 Reference value :  1.17072e-07
 Reference value :  2.22260e-07
 Reference value :  3.32177e-07
No. of Data Rows : 68030

  Measurements for Transient Analysis

tphl                =  -2.65482e-10 targ=  2.90907e-08 trig=  2.93562e-08
tplh                =  1.61391e-09 targ=  1.11683e-07 trig=  1.10069e-07
i_vdd_avg           =  -8.17768e-07 from=  1.00000e-08 to=  3.30002e-07
power_avg_uw        =  1.55190e+00


Total analysis time (seconds) = 0.855787

Total elapsed time (seconds) = 1.026 

Total DRAM available = 16384.000 MB.
DRAM currently available =  123.750 MB.
Maximum ngspice program size =   25.812 MB.
Current ngspice program size =   25.812 MB.

