
Note: Compatibility modes selected: hs a


Circuit: SKY130 library cell nand3_4 A_to_Y__B=1,C=1

option SCALE: Scale is set to 1e-06 for instance and model parameters
Doing analysis at TEMP = -36.470612 and TNOM = 27.000000

Using KLU as Direct Linear Solver
 Reference value :  7.47140e-09
 Reference value :  3.57988e-08
 Reference value :  6.27538e-08
 Reference value :  9.09038e-08
 Reference value :  1.18225e-07
 Reference value :  1.48450e-07
 Reference value :  1.77355e-07
 Reference value :  2.06139e-07
 Reference value :  2.35434e-07
 Reference value :  2.63144e-07
 Reference value :  2.91435e-07
 Reference value :  3.19855e-07
No. of Data Rows : 68030

  Measurements for Transient Analysis

tphl                =  1.08878e-09 targ=  2.96394e-08 trig=  2.85506e-08
tplh                =  2.41125e-09 targ=  1.10063e-07 trig=  1.07652e-07
i_vdd_avg           =  -4.61915e-07 from=  1.00000e-08 to=  3.30000e-07
power_avg_uw        =  7.83179e-01


Total analysis time (seconds) = 3.07362

Total elapsed time (seconds) = 3.255 

Total DRAM available = 16384.000 MB.
DRAM currently available =  107.156 MB.
Maximum ngspice program size =   30.375 MB.
Current ngspice program size =   30.375 MB.

