
Note: Compatibility modes selected: hs a


Circuit: SKY130 library cell inv_4 A_to_Y

option SCALE: Scale is set to 1e-06 for instance and model parameters
Doing analysis at TEMP = 68.969295 and TNOM = 27.000000

Using KLU as Direct Linear Solver
 Reference value :  3.39725e-08
 Reference value :  1.38595e-07
 Reference value :  2.34946e-07
 Reference value :  3.25310e-07
No. of Data Rows : 68032

  Measurements for Transient Analysis

tphl                =  -5.03311e-10 targ=  2.89211e-08 trig=  2.94245e-08
tplh                =  1.13206e-09 targ=  1.11405e-07 trig=  1.10273e-07
i_vdd_avg           =  -2.48410e-06 from=  1.00000e-08 to=  3.30000e-07
power_avg_uw        =  4.35140e+00


Total analysis time (seconds) = 0.895471

Total elapsed time (seconds) = 1.047 

Total DRAM available = 16384.000 MB.
DRAM currently available =  109.312 MB.
Maximum ngspice program size =   25.359 MB.
Current ngspice program size =   25.359 MB.

