
Note: Compatibility modes selected: hs a


Circuit: SKY130 library cell nand3_1 A_to_Y__B=1,C=1

option SCALE: Scale is set to 1e-06 for instance and model parameters
Doing analysis at TEMP = 80.838907 and TNOM = 27.000000

Using KLU as Direct Linear Solver
 Reference value :  3.16225e-08
 Reference value :  1.24835e-07
 Reference value :  2.18204e-07
 Reference value :  3.19135e-07
No. of Data Rows : 68030

  Measurements for Transient Analysis

tphl                =  2.69045e-09 targ=  3.12786e-08 trig=  2.85881e-08
tplh                =  3.10365e-09 targ=  1.10868e-07 trig=  1.07764e-07
i_vdd_avg           =  -7.05065e-07 from=  1.00000e-08 to=  3.30000e-07
power_avg_uw        =  1.18783e+00


Total analysis time (seconds) = 0.911587

Total elapsed time (seconds) = 1.080 

Total DRAM available = 16384.000 MB.
DRAM currently available =  164.547 MB.
Maximum ngspice program size =   26.859 MB.
Current ngspice program size =   26.859 MB.

