
Note: Compatibility modes selected: hs a


Circuit: SKY130 library cell nand3_4 A_to_Y__B=1,C=1

option SCALE: Scale is set to 1e-06 for instance and model parameters
Doing analysis at TEMP = -5.357597 and TNOM = 27.000000

Using KLU as Direct Linear Solver
 Reference value :  6.40640e-09
 Reference value :  3.25325e-08
 Reference value :  6.06425e-08
 Reference value :  8.75025e-08
 Reference value :  1.14478e-07
 Reference value :  1.43483e-07
 Reference value :  1.70238e-07
 Reference value :  1.98063e-07
 Reference value :  2.25948e-07
 Reference value :  2.54233e-07
 Reference value :  2.80768e-07
 Reference value :  3.08093e-07
 Reference value :  3.34008e-07
No. of Data Rows : 68032

  Measurements for Transient Analysis

tphl                =  1.69386e-09 targ=  3.08739e-08 trig=  2.91800e-08
tplh                =  2.92391e-09 targ=  1.12464e-07 trig=  1.09540e-07
i_vdd_avg           =  -2.25942e-06 from=  1.00000e-08 to=  3.30003e-07
power_avg_uw        =  4.27006e+00


Total analysis time (seconds) = 3.1544

Total elapsed time (seconds) = 3.327 

Total DRAM available = 16384.000 MB.
DRAM currently available =  174.391 MB.
Maximum ngspice program size =   25.125 MB.
Current ngspice program size =   25.125 MB.

