
Note: Compatibility modes selected: hs a


Circuit: SKY130 library cell xor2_4 A_to_X__B=0

option SCALE: Scale is set to 1e-06 for instance and model parameters
Doing analysis at TEMP = -23.929031 and TNOM = 27.000000

Using KLU as Direct Linear Solver
 Reference value :  3.67640e-09
 Reference value :  2.12364e-08
 Reference value :  3.86780e-08
 Reference value :  5.63430e-08
 Reference value :  7.43780e-08
 Reference value :  9.21180e-08
 Reference value :  1.09492e-07
 Reference value :  1.26272e-07
 Reference value :  1.43272e-07
 Reference value :  1.60747e-07
 Reference value :  1.78382e-07
 Reference value :  1.95558e-07
 Reference value :  2.12113e-07
 Reference value :  2.28893e-07
 Reference value :  2.47288e-07
 Reference value :  2.63512e-07
 Reference value :  2.81157e-07
 Reference value :  2.97782e-07
 Reference value :  3.14617e-07
 Reference value :  3.31802e-07
No. of Data Rows : 68032

  Measurements for Transient Analysis

tplh                =  2.11930e-10 targ=  2.43722e-08 trig=  2.41602e-08
tphl                =  1.93641e-10 targ=  9.46743e-08 trig=  9.44807e-08
i_vdd_avg           =  -6.52239e-07 from=  1.00000e-08 to=  3.30002e-07
power_avg_uw        =  1.07233e+00


Total analysis time (seconds) = 5.03684

Total elapsed time (seconds) = 5.219 

Total DRAM available = 16384.000 MB.
DRAM currently available =  138.938 MB.
Maximum ngspice program size =   26.438 MB.
Current ngspice program size =   26.438 MB.

