
Note: Compatibility modes selected: hs a


Circuit: SKY130 library cell xor2_1 A_to_X__B=0

option SCALE: Scale is set to 1e-06 for instance and model parameters
Doing analysis at TEMP = 85.295804 and TNOM = 27.000000

Using KLU as Direct Linear Solver
 Reference value :  2.02414e-08
 Reference value :  8.70284e-08
 Reference value :  1.52189e-07
 Reference value :  2.20928e-07
 Reference value :  2.88444e-07
No. of Data Rows : 68032

  Measurements for Transient Analysis

tplh                =  2.56673e-09 targ=  2.72772e-08 trig=  2.47105e-08
tphl                =  9.05838e-10 targ=  9.70372e-08 trig=  9.61314e-08
i_vdd_avg           =  -2.26222e-06 from=  1.00000e-08 to=  3.30004e-07
power_avg_uw        =  4.07063e+00


Total analysis time (seconds) = 1.30993

Total elapsed time (seconds) = 1.471 

Total DRAM available = 16384.000 MB.
DRAM currently available =  115.953 MB.
Maximum ngspice program size =   24.906 MB.
Current ngspice program size =   24.906 MB.

