
Note: Compatibility modes selected: hs a


Circuit: SKY130 library cell oai21_4 A1_to_Y__A2=0,B1=1

option SCALE: Scale is set to 1e-06 for instance and model parameters
Doing analysis at TEMP = 54.050779 and TNOM = 27.000000

Using KLU as Direct Linear Solver
 Reference value :  6.99140e-09
 Reference value :  3.73998e-08
 Reference value :  6.49698e-08
 Reference value :  9.15348e-08
 Reference value :  1.19117e-07
 Reference value :  1.48407e-07
 Reference value :  1.75587e-07
 Reference value :  2.03980e-07
 Reference value :  2.31920e-07
 Reference value :  2.59220e-07
 Reference value :  2.87212e-07
 Reference value :  3.15777e-07
No. of Data Rows : 68030

  Measurements for Transient Analysis

tphl                =  -3.09455e-10 targ=  2.90442e-08 trig=  2.93537e-08
tplh                =  1.50166e-09 targ=  1.11563e-07 trig=  1.10061e-07
i_vdd_avg           =  -2.15278e-06 from=  1.00000e-08 to=  3.30002e-07
power_avg_uw        =  3.88024e+00


Total analysis time (seconds) = 3.0656

Total elapsed time (seconds) = 3.226 

Total DRAM available = 16384.000 MB.
DRAM currently available =  131.406 MB.
Maximum ngspice program size =   24.562 MB.
Current ngspice program size =   24.562 MB.

