
Note: Compatibility modes selected: hs a


Circuit: SKY130 library cell inv_4 A_to_Y

option SCALE: Scale is set to 1e-06 for instance and model parameters
Doing analysis at TEMP = -28.426895 and TNOM = 27.000000

Using KLU as Direct Linear Solver
 Reference value :  3.99150e-08
 Reference value :  1.30327e-07
 Reference value :  2.26475e-07
 Reference value :  3.21697e-07
No. of Data Rows : 68030

  Measurements for Transient Analysis

tphl                =  1.77156e-09 targ=  3.10053e-08 trig=  2.92337e-08
tplh                =  3.74984e-09 targ=  1.13451e-07 trig=  1.09701e-07
i_vdd_avg           =  -2.12454e-06 from=  1.00000e-08 to=  3.30002e-07
power_avg_uw        =  3.68297e+00


Total analysis time (seconds) = 0.932038

Total elapsed time (seconds) = 1.072 

Total DRAM available = 16384.000 MB.
DRAM currently available =   91.594 MB.
Maximum ngspice program size =   26.562 MB.
Current ngspice program size =   25.969 MB.

