
Note: Compatibility modes selected: hs a


Circuit: SKY130 library cell aoi21_1 A1_to_Y__A2=1,B1=0

option SCALE: Scale is set to 1e-06 for instance and model parameters
Doing analysis at TEMP = 6.956812 and TNOM = 27.000000

Using KLU as Direct Linear Solver
 Reference value :  3.24725e-08
 Reference value :  1.38459e-07
 Reference value :  2.32291e-07
 Reference value :  3.27184e-07
No. of Data Rows : 68034

  Measurements for Transient Analysis

tphl                =  1.78145e-09 targ=  3.10130e-08 trig=  2.92315e-08
tplh                =  4.17824e-09 targ=  1.13873e-07 trig=  1.09695e-07
i_vdd_avg           =  -1.22834e-06 from=  1.00000e-08 to=  3.30004e-07
power_avg_uw        =  2.17164e+00


Total analysis time (seconds) = 0.879557

Total elapsed time (seconds) = 1.040 

Total DRAM available = 16384.000 MB.
DRAM currently available =  129.766 MB.
Maximum ngspice program size =   26.578 MB.
Current ngspice program size =   26.578 MB.

