
Note: Compatibility modes selected: hs a


Circuit: SKY130 library cell nor2_1 A_to_Y__B=0

option SCALE: Scale is set to 1e-06 for instance and model parameters
Doing analysis at TEMP = 31.340849 and TNOM = 27.000000

Using KLU as Direct Linear Solver
 Reference value :  5.00986e-08
 Reference value :  2.00309e-07
No. of Data Rows : 68032

  Measurements for Transient Analysis

tphl                =  5.52213e-10 targ=  2.54328e-08 trig=  2.48805e-08
tplh                =  1.39712e-09 targ=  9.80387e-08 trig=  9.66416e-08
i_vdd_avg           =  -7.77605e-07 from=  1.00000e-08 to=  3.30005e-07
power_avg_uw        =  1.38409e+00


Total analysis time (seconds) = 0.588012

Total elapsed time (seconds) = 0.744 

Total DRAM available = 16384.000 MB.
DRAM currently available =  148.328 MB.
Maximum ngspice program size =   25.188 MB.
Current ngspice program size =   25.188 MB.

