
Note: Compatibility modes selected: hs a


Circuit: SKY130 library cell inv_4 A_to_Y

option SCALE: Scale is set to 1e-06 for instance and model parameters
Doing analysis at TEMP = 101.028910 and TNOM = 27.000000

Using KLU as Direct Linear Solver
 Reference value :  3.33375e-08
 Reference value :  1.31027e-07
 Reference value :  2.28632e-07
 Reference value :  3.11432e-07
No. of Data Rows : 68032

  Measurements for Transient Analysis

tphl                =  -4.34051e-10 targ=  2.93859e-08 trig=  2.98200e-08
tplh                =  1.31901e-09 targ=  1.12779e-07 trig=  1.11460e-07
i_vdd_avg           =  -5.99351e-06 from=  1.00000e-08 to=  3.30002e-07
power_avg_uw        =  1.15480e+01


Total analysis time (seconds) = 0.933744

Total elapsed time (seconds) = 1.088 

Total DRAM available = 16384.000 MB.
DRAM currently available =  124.984 MB.
Maximum ngspice program size =   24.531 MB.
Current ngspice program size =   24.531 MB.

