
Note: Compatibility modes selected: hs a


Circuit: SKY130 library cell xor2_1 A_to_X__B=0

option SCALE: Scale is set to 1e-06 for instance and model parameters
Doing analysis at TEMP = 124.675050 and TNOM = 27.000000

Using KLU as Direct Linear Solver
 Reference value :  2.25014e-08
 Reference value :  8.53216e-08
 Reference value :  1.56686e-07
 Reference value :  2.28137e-07
 Reference value :  2.94186e-07
No. of Data Rows : 68032

  Measurements for Transient Analysis

tplh                =  1.28412e-09 targ=  2.72537e-08 trig=  2.59695e-08
tphl                =  9.24109e-10 targ=  1.00833e-07 trig=  9.99086e-08
i_vdd_avg           =  -2.24778e-06 from=  1.00000e-08 to=  3.30001e-07
power_avg_uw        =  4.12396e+00


Total analysis time (seconds) = 1.26352

Total elapsed time (seconds) = 1.416 

Total DRAM available = 16384.000 MB.
DRAM currently available =  115.953 MB.
Maximum ngspice program size =   25.453 MB.
Current ngspice program size =   25.453 MB.

