
Note: Compatibility modes selected: hs a


Circuit: SKY130 library cell nand2_4 A_to_Y__B=1

option SCALE: Scale is set to 1e-06 for instance and model parameters
Doing analysis at TEMP = 20.048969 and TNOM = 27.000000

Using KLU as Direct Linear Solver
 Reference value :  1.88164e-08
 Reference value :  6.57294e-08
 Reference value :  1.10914e-07
 Reference value :  1.56956e-07
 Reference value :  2.03309e-07
 Reference value :  2.47099e-07
 Reference value :  2.93326e-07
No. of Data Rows : 68030

  Measurements for Transient Analysis

tphl                =  5.17439e-10 targ=  3.02559e-08 trig=  2.97385e-08
tplh                =  2.11475e-09 targ=  1.13330e-07 trig=  1.11215e-07
i_vdd_avg           =  -1.99999e-06 from=  1.00000e-08 to=  3.30001e-07
power_avg_uw        =  3.70334e+00


Total analysis time (seconds) = 1.85952

Total elapsed time (seconds) = 2.002 

Total DRAM available = 16384.000 MB.
DRAM currently available =  117.984 MB.
Maximum ngspice program size =   26.766 MB.
Current ngspice program size =   26.766 MB.

