
Note: Compatibility modes selected: hs a


Circuit: SKY130 library cell aoi21_4 A1_to_Y__A2=1,B1=0

option SCALE: Scale is set to 1e-06 for instance and model parameters
Doing analysis at TEMP = -14.542709 and TNOM = 27.000000

Using KLU as Direct Linear Solver
 Reference value :  5.46140e-09
 Reference value :  3.35575e-08
 Reference value :  6.17940e-08
 Reference value :  9.06690e-08
 Reference value :  1.18155e-07
 Reference value :  1.46950e-07
 Reference value :  1.74835e-07
 Reference value :  2.02369e-07
 Reference value :  2.31559e-07
 Reference value :  2.59644e-07
 Reference value :  2.87545e-07
 Reference value :  3.16760e-07
No. of Data Rows : 68030

  Measurements for Transient Analysis

tphl                =  -5.62466e-11 targ=  2.92220e-08 trig=  2.92782e-08
tplh                =  2.22262e-09 targ=  1.12057e-07 trig=  1.09835e-07
i_vdd_avg           =  -2.53625e-06 from=  1.00000e-08 to=  3.30000e-07
power_avg_uw        =  4.70551e+00


Total analysis time (seconds) = 3.08507

Total elapsed time (seconds) = 3.264 

Total DRAM available = 16384.000 MB.
DRAM currently available =  125.516 MB.
Maximum ngspice program size =   26.531 MB.
Current ngspice program size =   26.531 MB.

