
Note: Compatibility modes selected: hs a


Circuit: SKY130 library cell nand3_4 A_to_Y__B=1,C=1

option SCALE: Scale is set to 1e-06 for instance and model parameters
Doing analysis at TEMP = 2.742017 and TNOM = 27.000000

Using KLU as Direct Linear Solver
 Reference value :  7.24140e-09
 Reference value :  3.58514e-08
 Reference value :  6.35264e-08
 Reference value :  9.10064e-08
 Reference value :  1.18970e-07
 Reference value :  1.47025e-07
 Reference value :  1.74900e-07
 Reference value :  2.04071e-07
 Reference value :  2.32611e-07
 Reference value :  2.61175e-07
 Reference value :  2.89060e-07
 Reference value :  3.16785e-07
No. of Data Rows : 68032

  Measurements for Transient Analysis

tphl                =  1.14412e-09 targ=  2.67061e-08 trig=  2.55620e-08
tplh                =  1.48516e-09 targ=  1.00171e-07 trig=  9.86859e-08
i_vdd_avg           =  -1.71310e-06 from=  1.00000e-08 to=  3.30000e-07
power_avg_uw        =  2.92940e+00


Total analysis time (seconds) = 3.102

Total elapsed time (seconds) = 3.281 

Total DRAM available = 16384.000 MB.
DRAM currently available =  102.266 MB.
Maximum ngspice program size =   29.547 MB.
Current ngspice program size =   29.547 MB.

