
Note: Compatibility modes selected: hs a


Circuit: SKY130 library cell xor2_4 A_to_X__B=0

option SCALE: Scale is set to 1e-06 for instance and model parameters
Doing analysis at TEMP = 66.096111 and TNOM = 27.000000

Using KLU as Direct Linear Solver
 Reference value :  2.81640e-09
 Reference value :  2.03614e-08
 Reference value :  3.66794e-08
 Reference value :  5.41644e-08
 Reference value :  7.20444e-08
 Reference value :  8.91194e-08
 Reference value :  1.06639e-07
 Reference value :  1.24836e-07
 Reference value :  1.42711e-07
 Reference value :  1.59426e-07
 Reference value :  1.77106e-07
 Reference value :  1.92834e-07
 Reference value :  2.09319e-07
 Reference value :  2.27029e-07
 Reference value :  2.44119e-07
 Reference value :  2.61569e-07
 Reference value :  2.78216e-07
 Reference value :  2.95016e-07
 Reference value :  3.11751e-07
 Reference value :  3.28731e-07
No. of Data Rows : 68030

  Measurements for Transient Analysis

tplh                =  2.22841e-10 targ=  2.82813e-08 trig=  2.80584e-08
tphl                =  9.73655e-10 targ=  1.07149e-07 trig=  1.06175e-07
i_vdd_avg           =  -2.36218e-06 from=  1.00000e-08 to=  3.30001e-07
power_avg_uw        =  4.41030e+00


Total analysis time (seconds) = 5.03443

Total elapsed time (seconds) = 5.250 

Total DRAM available = 16384.000 MB.
DRAM currently available =  138.938 MB.
Maximum ngspice program size =   28.062 MB.
Current ngspice program size =   28.062 MB.

