
Note: Compatibility modes selected: hs a


Circuit: SKY130 library cell nor2_1 A_to_Y__B=0

option SCALE: Scale is set to 1e-06 for instance and model parameters
Doing analysis at TEMP = 21.277438 and TNOM = 27.000000

Using KLU as Direct Linear Solver
 Reference value :  5.49236e-08
 Reference value :  2.12229e-07
No. of Data Rows : 68032

  Measurements for Transient Analysis

tphl                =  8.87525e-10 targ=  2.61256e-08 trig=  2.52381e-08
tplh                =  2.65972e-09 targ=  1.00374e-07 trig=  9.77142e-08
i_vdd_avg           =  -2.07635e-06 from=  1.00000e-08 to=  3.30005e-07
power_avg_uw        =  3.60538e+00


Total analysis time (seconds) = 0.55465

Total elapsed time (seconds) = 0.710 

Total DRAM available = 16384.000 MB.
DRAM currently available =  183.094 MB.
Maximum ngspice program size =   27.203 MB.
Current ngspice program size =   27.203 MB.

