
Note: Compatibility modes selected: hs a


Circuit: SKY130 library cell inv_4 A_to_Y

option SCALE: Scale is set to 1e-06 for instance and model parameters
Doing analysis at TEMP = -14.487109 and TNOM = 27.000000

Using KLU as Direct Linear Solver
 Reference value :  3.42223e-08
 Reference value :  1.35502e-07
 Reference value :  2.32337e-07
 Reference value :  3.34687e-07
No. of Data Rows : 68032

  Measurements for Transient Analysis

tphl                =  1.48646e-09 targ=  2.97239e-08 trig=  2.82374e-08
tplh                =  3.02916e-09 targ=  1.09741e-07 trig=  1.06712e-07
i_vdd_avg           =  -1.85963e-06 from=  1.00000e-08 to=  3.30002e-07
power_avg_uw        =  3.21472e+00


Total analysis time (seconds) = 0.8674

Total elapsed time (seconds) = 1.015 

Total DRAM available = 16384.000 MB.
DRAM currently available =  151.125 MB.
Maximum ngspice program size =   26.016 MB.
Current ngspice program size =   26.016 MB.

