
Note: Compatibility modes selected: hs a


Circuit: SKY130 library cell nor2_1 A_to_Y__B=0

option SCALE: Scale is set to 1e-06 for instance and model parameters
Doing analysis at TEMP = 112.553210 and TNOM = 27.000000

Using KLU as Direct Linear Solver
 Reference value :  5.22198e-08
 Reference value :  1.94488e-07
 Reference value :  3.37462e-07
No. of Data Rows : 68030

  Measurements for Transient Analysis

tphl                =  2.06927e-09 targ=  3.20354e-08 trig=  2.99662e-08
tplh                =  4.59045e-09 targ=  1.16489e-07 trig=  1.11898e-07
i_vdd_avg           =  -2.48340e-06 from=  1.00000e-08 to=  3.30002e-07
power_avg_uw        =  4.58628e+00


Total analysis time (seconds) = 0.601894

Total elapsed time (seconds) = 0.760 

Total DRAM available = 16384.000 MB.
DRAM currently available =  131.141 MB.
Maximum ngspice program size =   25.703 MB.
Current ngspice program size =   25.703 MB.

