
Note: Compatibility modes selected: hs a


Circuit: SKY130 library cell nand2_4 A_to_Y__B=1

option SCALE: Scale is set to 1e-06 for instance and model parameters
Doing analysis at TEMP = -36.783080 and TNOM = 27.000000

Using KLU as Direct Linear Solver
 Reference value :  1.58064e-08
 Reference value :  6.32102e-08
 Reference value :  1.10768e-07
 Reference value :  1.57133e-07
 Reference value :  2.02735e-07
 Reference value :  2.50795e-07
 Reference value :  2.99258e-07
No. of Data Rows : 68034

  Measurements for Transient Analysis

tphl                =  1.19222e-09 targ=  2.79711e-08 trig=  2.67789e-08
tplh                =  2.16594e-09 targ=  1.04503e-07 trig=  1.02337e-07
i_vdd_avg           =  -1.14499e-06 from=  1.00000e-08 to=  3.30003e-07
power_avg_uw        =  1.93050e+00


Total analysis time (seconds) = 1.79573

Total elapsed time (seconds) = 1.963 

Total DRAM available = 16384.000 MB.
DRAM currently available =  117.984 MB.
Maximum ngspice program size =   26.812 MB.
Current ngspice program size =   26.812 MB.

