
Note: Compatibility modes selected: hs a


Circuit: SKY130 library cell oai21_4 A1_to_Y__A2=0,B1=1

option SCALE: Scale is set to 1e-06 for instance and model parameters
Doing analysis at TEMP = 73.683409 and TNOM = 27.000000

Using KLU as Direct Linear Solver
 Reference value :  6.41140e-09
 Reference value :  3.33175e-08
 Reference value :  6.00401e-08
 Reference value :  8.77051e-08
 Reference value :  1.15368e-07
 Reference value :  1.44498e-07
 Reference value :  1.71868e-07
 Reference value :  2.00015e-07
 Reference value :  2.28055e-07
 Reference value :  2.56010e-07
 Reference value :  2.82278e-07
 Reference value :  3.09293e-07
 Reference value :  3.39153e-07
No. of Data Rows : 68034

  Measurements for Transient Analysis

tphl                =  9.21834e-11 targ=  2.90485e-08 trig=  2.89563e-08
tplh                =  9.36525e-10 targ=  1.09805e-07 trig=  1.08869e-07
i_vdd_avg           =  -5.62936e-07 from=  1.00000e-08 to=  3.30003e-07
power_avg_uw        =  1.10013e+00


Total analysis time (seconds) = 3.16726

Total elapsed time (seconds) = 3.362 

Total DRAM available = 16384.000 MB.
DRAM currently available =  215.891 MB.
Maximum ngspice program size =   29.812 MB.
Current ngspice program size =   29.812 MB.

