
Note: Compatibility modes selected: hs a


Circuit: SKY130 library cell mux2_1 A0_to_X__A1=0,S=0

option SCALE: Scale is set to 1e-06 for instance and model parameters
Doing analysis at TEMP = 82.341770 and TNOM = 27.000000

Using KLU as Direct Linear Solver
 Reference value :  1.74214e-08
 Reference value :  6.80482e-08
 Reference value :  1.20904e-07
 Reference value :  1.72444e-07
 Reference value :  2.22448e-07
 Reference value :  2.77524e-07
 Reference value :  3.29544e-07
No. of Data Rows : 68032

  Measurements for Transient Analysis

tplh                =  1.24148e-09 targ=  2.70368e-08 trig=  2.57954e-08
tphl                =  1.57430e-09 targ=  1.00960e-07 trig=  9.93861e-08
i_vdd_avg           =  -7.06279e-07 from=  1.00000e-08 to=  3.30004e-07
power_avg_uw        =  1.16729e+00


Total analysis time (seconds) = 1.69942

Total elapsed time (seconds) = 1.861 

Total DRAM available = 16384.000 MB.
DRAM currently available =  137.578 MB.
Maximum ngspice program size =   25.422 MB.
Current ngspice program size =   25.422 MB.

