
Note: Compatibility modes selected: hs a


Circuit: SKY130 library cell inv_4 A_to_Y

option SCALE: Scale is set to 1e-06 for instance and model parameters
Doing analysis at TEMP = 60.743346 and TNOM = 27.000000

Using KLU as Direct Linear Solver
 Reference value :  4.02616e-08
 Reference value :  1.29241e-07
 Reference value :  2.25162e-07
 Reference value :  3.11966e-07
No. of Data Rows : 68032

  Measurements for Transient Analysis

tphl                =  -2.10625e-10 targ=  2.93589e-08 trig=  2.95695e-08
tplh                =  1.24367e-09 targ=  1.11952e-07 trig=  1.10709e-07
i_vdd_avg           =  -2.24470e-06 from=  1.00000e-08 to=  3.30001e-07
power_avg_uw        =  4.43616e+00


Total analysis time (seconds) = 0.949228

Total elapsed time (seconds) = 1.100 

Total DRAM available = 16384.000 MB.
DRAM currently available =   91.594 MB.
Maximum ngspice program size =   25.078 MB.
Current ngspice program size =   25.078 MB.

