
Note: Compatibility modes selected: hs a


Circuit: SKY130 library cell aoi21_1 A1_to_Y__A2=1,B1=0

option SCALE: Scale is set to 1e-06 for instance and model parameters
Doing analysis at TEMP = 37.999422 and TNOM = 27.000000

Using KLU as Direct Linear Solver
 Reference value :  2.85775e-08
 Reference value :  1.32876e-07
 Reference value :  2.30929e-07
 Reference value :  3.31401e-07
No. of Data Rows : 68030

  Measurements for Transient Analysis

tphl                =  -1.31109e-10 targ=  2.94773e-08 trig=  2.96084e-08
tplh                =  1.88031e-09 targ=  1.12705e-07 trig=  1.10825e-07
i_vdd_avg           =  -7.06170e-07 from=  1.00000e-08 to=  3.30001e-07
power_avg_uw        =  1.29950e+00


Total analysis time (seconds) = 0.862138

Total elapsed time (seconds) = 1.032 

Total DRAM available = 16384.000 MB.
DRAM currently available =  142.531 MB.
Maximum ngspice program size =   24.594 MB.
Current ngspice program size =   24.594 MB.

