
Note: Compatibility modes selected: hs a


Circuit: SKY130 library cell oai21_1 A1_to_Y__A2=0,B1=1

option SCALE: Scale is set to 1e-06 for instance and model parameters
Doing analysis at TEMP = 121.085160 and TNOM = 27.000000

Using KLU as Direct Linear Solver
 Reference value :  2.79575e-08
 Reference value :  1.28813e-07
 Reference value :  2.28153e-07
 Reference value :  3.25328e-07
No. of Data Rows : 68032

  Measurements for Transient Analysis

tphl                =  8.41626e-10 targ=  2.82318e-08 trig=  2.73902e-08
tplh                =  1.71680e-09 targ=  1.05887e-07 trig=  1.04170e-07
i_vdd_avg           =  -6.28911e-07 from=  1.00000e-08 to=  3.30003e-07
power_avg_uw        =  1.11663e+00


Total analysis time (seconds) = 0.894054

Total elapsed time (seconds) = 1.059 

Total DRAM available = 16384.000 MB.
DRAM currently available =  124.594 MB.
Maximum ngspice program size =   24.328 MB.
Current ngspice program size =   24.328 MB.

