
Note: Compatibility modes selected: hs a


Circuit: SKY130 library cell xor2_4 A_to_X__B=0

option SCALE: Scale is set to 1e-06 for instance and model parameters
Doing analysis at TEMP = 18.849269 and TNOM = 27.000000

Using KLU as Direct Linear Solver
 Reference value :  3.39140e-09
 Reference value :  2.07764e-08
 Reference value :  3.73236e-08
 Reference value :  5.50536e-08
 Reference value :  7.13836e-08
 Reference value :  8.82836e-08
 Reference value :  1.05415e-07
 Reference value :  1.22670e-07
 Reference value :  1.39630e-07
 Reference value :  1.55840e-07
 Reference value :  1.72985e-07
 Reference value :  1.91629e-07
 Reference value :  2.08044e-07
 Reference value :  2.25209e-07
 Reference value :  2.42579e-07
 Reference value :  2.59410e-07
 Reference value :  2.76215e-07
 Reference value :  2.93565e-07
 Reference value :  3.12110e-07
 Reference value :  3.28855e-07
No. of Data Rows : 68032

  Measurements for Transient Analysis

tplh                =  9.30194e-11 targ=  2.51661e-08 trig=  2.50731e-08
tphl                =  3.90432e-10 targ=  9.76096e-08 trig=  9.72192e-08
i_vdd_avg           =  -9.56523e-07 from=  1.00000e-08 to=  3.30005e-07
power_avg_uw        =  1.71338e+00


Total analysis time (seconds) = 5.035

Total elapsed time (seconds) = 5.257 

Total DRAM available = 16384.000 MB.
DRAM currently available =  138.938 MB.
Maximum ngspice program size =   28.391 MB.
Current ngspice program size =   28.391 MB.

