
Note: Compatibility modes selected: hs a


Circuit: SKY130 library cell mux2_4 A0_to_X__A1=0,S=0

option SCALE: Scale is set to 1e-06 for instance and model parameters
Doing analysis at TEMP = 56.685911 and TNOM = 27.000000

Using KLU as Direct Linear Solver
 Reference value :  9.00140e-09
 Reference value :  4.60486e-08
 Reference value :  8.51136e-08
 Reference value :  1.21735e-07
 Reference value :  1.59765e-07
 Reference value :  1.96449e-07
 Reference value :  2.33079e-07
 Reference value :  2.68760e-07
 Reference value :  3.05565e-07
No. of Data Rows : 68032

  Measurements for Transient Analysis

tplh                =  3.75964e-10 targ=  2.73790e-08 trig=  2.70030e-08
tphl                =  1.10410e-09 targ=  1.04113e-07 trig=  1.03009e-07
i_vdd_avg           =  -3.58722e-07 from=  1.00000e-08 to=  3.30005e-07
power_avg_uw        =  6.21398e-01


Total analysis time (seconds) = 2.33816

Total elapsed time (seconds) = 2.524 

Total DRAM available = 16384.000 MB.
DRAM currently available =  113.406 MB.
Maximum ngspice program size =   28.594 MB.
Current ngspice program size =   28.594 MB.

