
Note: Compatibility modes selected: hs a


Circuit: SKY130 library cell mux2_1 A0_to_X__A1=0,S=0

option SCALE: Scale is set to 1e-06 for instance and model parameters
Doing analysis at TEMP = 90.440935 and TNOM = 27.000000

Using KLU as Direct Linear Solver
 Reference value :  1.50564e-08
 Reference value :  6.07429e-08
 Reference value :  1.08703e-07
 Reference value :  1.52373e-07
 Reference value :  1.98518e-07
 Reference value :  2.49433e-07
 Reference value :  2.93443e-07
No. of Data Rows : 68032

  Measurements for Transient Analysis

tplh                =  1.96779e-09 targ=  3.08680e-08 trig=  2.89002e-08
tphl                =  2.61898e-09 targ=  1.11320e-07 trig=  1.08701e-07
i_vdd_avg           =  -1.67773e-06 from=  1.00000e-08 to=  3.30003e-07
power_avg_uw        =  2.92080e+00


Total analysis time (seconds) = 1.91131

Total elapsed time (seconds) = 2.082 

Total DRAM available = 16384.000 MB.
DRAM currently available =  153.047 MB.
Maximum ngspice program size =   27.859 MB.
Current ngspice program size =   27.859 MB.

