
Note: Compatibility modes selected: hs a


Circuit: SKY130 library cell inv_4 A_to_Y

option SCALE: Scale is set to 1e-06 for instance and model parameters
Doing analysis at TEMP = 91.002540 and TNOM = 27.000000

Using KLU as Direct Linear Solver
 Reference value :  3.72438e-08
 Reference value :  1.34760e-07
 Reference value :  2.30094e-07
 Reference value :  3.20800e-07
No. of Data Rows : 68030

  Measurements for Transient Analysis

tphl                =  4.18677e-10 targ=  2.90018e-08 trig=  2.85831e-08
tplh                =  1.54712e-09 targ=  1.09297e-07 trig=  1.07749e-07
i_vdd_avg           =  -2.56793e-06 from=  1.00000e-08 to=  3.30000e-07
power_avg_uw        =  4.79289e+00


Total analysis time (seconds) = 0.911473

Total elapsed time (seconds) = 1.061 

Total DRAM available = 16384.000 MB.
DRAM currently available =  123.969 MB.
Maximum ngspice program size =   24.516 MB.
Current ngspice program size =   24.516 MB.

