
Note: Compatibility modes selected: hs a


Circuit: SKY130 library cell nand2_1 A_to_Y__B=1

option SCALE: Scale is set to 1e-06 for instance and model parameters
Doing analysis at TEMP = -38.994824 and TNOM = 27.000000

Using KLU as Direct Linear Solver
 Reference value :  5.61565e-08
 Reference value :  2.11866e-07
No. of Data Rows : 68032

  Measurements for Transient Analysis

tphl                =  1.60499e-10 targ=  2.44050e-08 trig=  2.42445e-08
tplh                =  2.54990e-10 targ=  9.49885e-08 trig=  9.47335e-08
i_vdd_avg           =  -1.01604e-07 from=  1.00000e-08 to=  3.30000e-07
power_avg_uw        =  1.85827e-01


Total analysis time (seconds) = 0.518476

Total elapsed time (seconds) = 0.682 

Total DRAM available = 16384.000 MB.
DRAM currently available =  126.391 MB.
Maximum ngspice program size =   25.953 MB.
Current ngspice program size =   25.953 MB.

