
Note: Compatibility modes selected: hs a


Circuit: SKY130 library cell aoi21_4 A1_to_Y__A2=1,B1=0

option SCALE: Scale is set to 1e-06 for instance and model parameters
Doing analysis at TEMP = -32.624234 and TNOM = 27.000000

Using KLU as Direct Linear Solver
 Reference value :  6.71140e-09
 Reference value :  3.43802e-08
 Reference value :  6.12902e-08
 Reference value :  9.04002e-08
 Reference value :  1.19388e-07
 Reference value :  1.49348e-07
 Reference value :  1.76148e-07
 Reference value :  2.04470e-07
 Reference value :  2.33035e-07
 Reference value :  2.61148e-07
 Reference value :  2.90928e-07
 Reference value :  3.21328e-07
No. of Data Rows : 68034

  Measurements for Transient Analysis

tphl                =  5.96214e-10 targ=  2.56926e-08 trig=  2.50964e-08
tplh                =  1.39239e-09 targ=  9.86815e-08 trig=  9.72891e-08
i_vdd_avg           =  -1.58917e-06 from=  1.00000e-08 to=  3.30003e-07
power_avg_uw        =  2.62996e+00


Total analysis time (seconds) = 3.03035

Total elapsed time (seconds) = 3.209 

Total DRAM available = 16384.000 MB.
DRAM currently available =  107.516 MB.
Maximum ngspice program size =   28.391 MB.
Current ngspice program size =   28.391 MB.

