
Note: Compatibility modes selected: hs a


Circuit: SKY130 library cell nand3_4 A_to_Y__B=1,C=1

option SCALE: Scale is set to 1e-06 for instance and model parameters
Doing analysis at TEMP = 95.802479 and TNOM = 27.000000

Using KLU as Direct Linear Solver
 Reference value :  7.86640e-09
 Reference value :  3.42801e-08
 Reference value :  6.31701e-08
 Reference value :  9.18001e-08
 Reference value :  1.20573e-07
 Reference value :  1.48328e-07
 Reference value :  1.76193e-07
 Reference value :  2.02720e-07
 Reference value :  2.31305e-07
 Reference value :  2.59413e-07
 Reference value :  2.87388e-07
 Reference value :  3.20048e-07
No. of Data Rows : 68034

  Measurements for Transient Analysis

tphl                =  1.10981e-10 targ=  2.46198e-08 trig=  2.45088e-08
tplh                =  2.08010e-10 targ=  9.57344e-08 trig=  9.55263e-08
i_vdd_avg           =  -4.74180e-07 from=  1.00000e-08 to=  3.30003e-07
power_avg_uw        =  8.15410e-01


Total analysis time (seconds) = 2.97516

Total elapsed time (seconds) = 3.149 

Total DRAM available = 16384.000 MB.
DRAM currently available =  131.781 MB.
Maximum ngspice program size =   26.656 MB.
Current ngspice program size =   26.656 MB.

