
Note: Compatibility modes selected: hs a


Circuit: SKY130 library cell xor2_4 A_to_X__B=0

option SCALE: Scale is set to 1e-06 for instance and model parameters
Doing analysis at TEMP = 44.024527 and TNOM = 27.000000

Using KLU as Direct Linear Solver
 Reference value :  4.99640e-09
 Reference value :  2.13114e-08
 Reference value :  3.89013e-08
 Reference value :  5.47263e-08
 Reference value :  7.30763e-08
 Reference value :  9.15713e-08
 Reference value :  1.09070e-07
 Reference value :  1.27130e-07
 Reference value :  1.44105e-07
 Reference value :  1.62445e-07
 Reference value :  1.79825e-07
 Reference value :  1.97791e-07
 Reference value :  2.15171e-07
 Reference value :  2.32541e-07
 Reference value :  2.49656e-07
 Reference value :  2.66225e-07
 Reference value :  2.83475e-07
 Reference value :  3.01180e-07
 Reference value :  3.18850e-07
 Reference value :  3.35775e-07
No. of Data Rows : 68032

  Measurements for Transient Analysis

tplh                =  1.41773e-09 targ=  2.61946e-08 trig=  2.47769e-08
tphl                =  7.90261e-10 targ=  9.71209e-08 trig=  9.63307e-08
i_vdd_avg           =  -1.92717e-06 from=  1.00000e-08 to=  3.30000e-07
power_avg_uw        =  3.13392e+00


Total analysis time (seconds) = 4.94414

Total elapsed time (seconds) = 5.119 

Total DRAM available = 16384.000 MB.
DRAM currently available =   98.797 MB.
Maximum ngspice program size =   27.750 MB.
Current ngspice program size =   27.750 MB.

