
Note: Compatibility modes selected: hs a


Circuit: SKY130 library cell xor2_1 A_to_X__B=0

option SCALE: Scale is set to 1e-06 for instance and model parameters
Doing analysis at TEMP = -14.193464 and TNOM = 27.000000

Using KLU as Direct Linear Solver
 Reference value :  1.93514e-08
 Reference value :  8.34008e-08
 Reference value :  1.48834e-07
 Reference value :  2.15326e-07
 Reference value :  2.84154e-07
No. of Data Rows : 68034

  Measurements for Transient Analysis

tplh                =  6.15771e-10 targ=  2.58124e-08 trig=  2.51967e-08
tphl                =  5.66158e-10 targ=  9.81562e-08 trig=  9.75900e-08
i_vdd_avg           =  -8.41095e-07 from=  1.00000e-08 to=  3.30004e-07
power_avg_uw        =  1.53728e+00


Total analysis time (seconds) = 1.32012

Total elapsed time (seconds) = 1.474 

Total DRAM available = 16384.000 MB.
DRAM currently available =  118.406 MB.
Maximum ngspice program size =   25.734 MB.
Current ngspice program size =   25.734 MB.

