
Note: Compatibility modes selected: hs a


Circuit: SKY130 library cell oai21_4 A1_to_Y__A2=0,B1=1

option SCALE: Scale is set to 1e-06 for instance and model parameters
Doing analysis at TEMP = -29.476698 and TNOM = 27.000000

Using KLU as Direct Linear Solver
 Reference value :  6.54640e-09
 Reference value :  3.35422e-08
 Reference value :  6.11622e-08
 Reference value :  8.58222e-08
 Reference value :  1.13852e-07
 Reference value :  1.42177e-07
 Reference value :  1.66897e-07
 Reference value :  1.94282e-07
 Reference value :  2.21077e-07
 Reference value :  2.47632e-07
 Reference value :  2.73092e-07
 Reference value :  2.98332e-07
 Reference value :  3.25742e-07
No. of Data Rows : 68032

  Measurements for Transient Analysis

tphl                =  4.42923e-10 targ=  2.56903e-08 trig=  2.52473e-08
tplh                =  1.14366e-09 targ=  9.88857e-08 trig=  9.77420e-08
i_vdd_avg           =  -1.93048e-06 from=  1.00000e-08 to=  3.30002e-07
power_avg_uw        =  3.68342e+00


Total analysis time (seconds) = 3.62725

Total elapsed time (seconds) = 3.811 

Total DRAM available = 16384.000 MB.
DRAM currently available =  163.984 MB.
Maximum ngspice program size =   28.594 MB.
Current ngspice program size =   28.594 MB.

