
Note: Compatibility modes selected: hs a


Circuit: SKY130 library cell aoi21_4 A1_to_Y__A2=1,B1=0

option SCALE: Scale is set to 1e-06 for instance and model parameters
Doing analysis at TEMP = 19.772535 and TNOM = 27.000000

Using KLU as Direct Linear Solver
 Reference value :  8.10640e-09
 Reference value :  3.54765e-08
 Reference value :  6.15715e-08
 Reference value :  8.87065e-08
 Reference value :  1.18470e-07
 Reference value :  1.46180e-07
 Reference value :  1.73480e-07
 Reference value :  2.00766e-07
 Reference value :  2.29251e-07
 Reference value :  2.57371e-07
 Reference value :  2.84755e-07
 Reference value :  3.12305e-07
 Reference value :  3.39770e-07
No. of Data Rows : 68032

  Measurements for Transient Analysis

tphl                =  4.82738e-10 targ=  2.65247e-08 trig=  2.60420e-08
tplh                =  1.03879e-09 targ=  1.01165e-07 trig=  1.00126e-07
i_vdd_avg           =  -3.28750e-07 from=  1.00000e-08 to=  3.30000e-07
power_avg_uw        =  5.71482e-01


Total analysis time (seconds) = 3.14457

Total elapsed time (seconds) = 3.310 

Total DRAM available = 16384.000 MB.
DRAM currently available =  125.516 MB.
Maximum ngspice program size =   27.141 MB.
Current ngspice program size =   27.141 MB.

