
Note: Compatibility modes selected: hs a


Circuit: SKY130 library cell nor2_1 A_to_Y__B=0

option SCALE: Scale is set to 1e-06 for instance and model parameters
Doing analysis at TEMP = 87.898560 and TNOM = 27.000000

Using KLU as Direct Linear Solver
 Reference value :  4.05101e-08
 Reference value :  1.76848e-07
 Reference value :  3.25093e-07
No. of Data Rows : 68034

  Measurements for Transient Analysis

tphl                =  7.21955e-10 targ=  2.90557e-08 trig=  2.83338e-08
tplh                =  2.69140e-09 targ=  1.09693e-07 trig=  1.07001e-07
i_vdd_avg           =  -1.88655e-06 from=  1.00000e-08 to=  3.30003e-07
power_avg_uw        =  3.51449e+00


Total analysis time (seconds) = 0.610851

Total elapsed time (seconds) = 0.788 

Total DRAM available = 16384.000 MB.
DRAM currently available =  131.141 MB.
Maximum ngspice program size =   26.484 MB.
Current ngspice program size =   26.484 MB.

