
Note: Compatibility modes selected: hs a


Circuit: SKY130 library cell nor2_1 A_to_Y__B=0

option SCALE: Scale is set to 1e-06 for instance and model parameters
Doing analysis at TEMP = 4.429972 and TNOM = 27.000000

Using KLU as Direct Linear Solver
 Reference value :  5.86970e-08
 Reference value :  2.05482e-07
No. of Data Rows : 68032

  Measurements for Transient Analysis

tphl                =  -1.47444e-10 targ=  2.61373e-08 trig=  2.62847e-08
tplh                =  7.81577e-10 targ=  1.01636e-07 trig=  1.00854e-07
i_vdd_avg           =  -1.67636e-07 from=  1.00000e-08 to=  3.30001e-07
power_avg_uw        =  2.96524e-01


Total analysis time (seconds) = 0.593815

Total elapsed time (seconds) = 0.737 

Total DRAM available = 16384.000 MB.
DRAM currently available =   87.938 MB.
Maximum ngspice program size =   26.359 MB.
Current ngspice program size =   26.359 MB.

