
Note: Compatibility modes selected: hs a


Circuit: SKY130 library cell nand2_1 A_to_Y__B=1

option SCALE: Scale is set to 1e-06 for instance and model parameters
Doing analysis at TEMP = 41.192871 and TNOM = 27.000000

Using KLU as Direct Linear Solver
 Reference value :  7.17200e-08
 Reference value :  2.41720e-07
No. of Data Rows : 68030

  Measurements for Transient Analysis

tphl                =  7.52090e-10 targ=  2.54583e-08 trig=  2.47062e-08
tplh                =  1.08538e-09 targ=  9.72041e-08 trig=  9.61187e-08
i_vdd_avg           =  -2.06308e-06 from=  1.00000e-08 to=  3.30002e-07
power_avg_uw        =  4.02194e+00


Total analysis time (seconds) = 0.518746

Total elapsed time (seconds) = 0.659 

Total DRAM available = 16384.000 MB.
DRAM currently available =   91.594 MB.
Maximum ngspice program size =   26.047 MB.
Current ngspice program size =   26.047 MB.

