
Note: Compatibility modes selected: hs a


Circuit: SKY130 library cell inv_1 A_to_Y

option SCALE: Scale is set to 1e-06 for instance and model parameters
Doing analysis at TEMP = 107.587220 and TNOM = 27.000000

Using KLU as Direct Linear Solver
 Reference value :  9.50740e-08
No. of Data Rows : 68030

  Measurements for Transient Analysis

tphl                =  8.57858e-10 targ=  2.60836e-08 trig=  2.52258e-08
tplh                =  1.41259e-09 targ=  9.90899e-08 trig=  9.76773e-08
i_vdd_avg           =  -2.38349e-06 from=  1.00000e-08 to=  3.30001e-07
power_avg_uw        =  4.51150e+00


Total analysis time (seconds) = 0.288964

Total elapsed time (seconds) = 0.469 

Total DRAM available = 16384.000 MB.
DRAM currently available =   75.031 MB.
Maximum ngspice program size =   25.062 MB.
Current ngspice program size =   25.062 MB.

