
Note: Compatibility modes selected: hs a


Circuit: SKY130 library cell oai21_1 A1_to_Y__A2=0,B1=1

option SCALE: Scale is set to 1e-06 for instance and model parameters
Doing analysis at TEMP = 77.776005 and TNOM = 27.000000

Using KLU as Direct Linear Solver
 Reference value :  3.17375e-08
 Reference value :  1.34309e-07
 Reference value :  2.29311e-07
 Reference value :  3.24509e-07
No. of Data Rows : 68034

  Measurements for Transient Analysis

tphl                =  -8.97093e-11 targ=  2.96668e-08 trig=  2.97565e-08
tplh                =  1.31710e-09 targ=  1.12587e-07 trig=  1.11270e-07
i_vdd_avg           =  -3.90929e-07 from=  1.00000e-08 to=  3.30004e-07
power_avg_uw        =  7.43692e-01


Total analysis time (seconds) = 0.883772

Total elapsed time (seconds) = 1.052 

Total DRAM available = 16384.000 MB.
DRAM currently available =  101.594 MB.
Maximum ngspice program size =   27.172 MB.
Current ngspice program size =   27.172 MB.

