
Note: Compatibility modes selected: hs a


Circuit: SKY130 library cell aoi21_1 A1_to_Y__A2=1,B1=0

option SCALE: Scale is set to 1e-06 for instance and model parameters
Doing analysis at TEMP = 115.312600 and TNOM = 27.000000

Using KLU as Direct Linear Solver
 Reference value :  3.16275e-08
 Reference value :  1.35345e-07
 Reference value :  2.31809e-07
 Reference value :  3.35325e-07
No. of Data Rows : 68030

  Measurements for Transient Analysis

tphl                =  3.20046e-09 targ=  3.10686e-08 trig=  2.78682e-08
tplh                =  4.69897e-09 targ=  1.10304e-07 trig=  1.05605e-07
i_vdd_avg           =  -2.42068e-06 from=  1.00000e-08 to=  3.30000e-07
power_avg_uw        =  4.60865e+00


Total analysis time (seconds) = 0.857681

Total elapsed time (seconds) = 1.031 

Total DRAM available = 16384.000 MB.
DRAM currently available =  122.281 MB.
Maximum ngspice program size =   25.047 MB.
Current ngspice program size =   25.047 MB.

