
Note: Compatibility modes selected: hs a


Circuit: SKY130 library cell inv_4 A_to_Y

option SCALE: Scale is set to 1e-06 for instance and model parameters
Doing analysis at TEMP = 114.581010 and TNOM = 27.000000

Using KLU as Direct Linear Solver
 Reference value :  3.22875e-08
 Reference value :  1.27489e-07
 Reference value :  2.22263e-07
 Reference value :  3.12204e-07
No. of Data Rows : 68032

  Measurements for Transient Analysis

tphl                =  -4.61899e-11 targ=  2.99266e-08 trig=  2.99728e-08
tplh                =  1.43370e-09 targ=  1.13352e-07 trig=  1.11918e-07
i_vdd_avg           =  -3.07468e-06 from=  1.00000e-08 to=  3.30004e-07
power_avg_uw        =  5.07024e+00


Total analysis time (seconds) = 0.923803

Total elapsed time (seconds) = 1.082 

Total DRAM available = 16384.000 MB.
DRAM currently available =  151.125 MB.
Maximum ngspice program size =   26.375 MB.
Current ngspice program size =   26.375 MB.

