
Note: Compatibility modes selected: hs a


Circuit: SKY130 library cell aoi21_4 A1_to_Y__A2=1,B1=0

option SCALE: Scale is set to 1e-06 for instance and model parameters
Doing analysis at TEMP = 94.003542 and TNOM = 27.000000

Using KLU as Direct Linear Solver
 Reference value :  9.02640e-09
 Reference value :  3.84248e-08
 Reference value :  6.92698e-08
 Reference value :  9.87848e-08
 Reference value :  1.27837e-07
 Reference value :  1.55767e-07
 Reference value :  1.83722e-07
 Reference value :  2.11690e-07
 Reference value :  2.39465e-07
 Reference value :  2.67927e-07
 Reference value :  2.97212e-07
 Reference value :  3.25222e-07
No. of Data Rows : 68030

  Measurements for Transient Analysis

tphl                =  -3.21593e-11 targ=  2.63565e-08 trig=  2.63886e-08
tplh                =  6.25103e-10 targ=  1.01791e-07 trig=  1.01166e-07
i_vdd_avg           =  -1.24766e-06 from=  1.00000e-08 to=  3.30002e-07
power_avg_uw        =  2.21463e+00


Total analysis time (seconds) = 3.01898

Total elapsed time (seconds) = 3.191 

Total DRAM available = 16384.000 MB.
DRAM currently available =  125.516 MB.
Maximum ngspice program size =   25.984 MB.
Current ngspice program size =   25.984 MB.

