
Note: Compatibility modes selected: hs a


Circuit: SKY130 library cell nand2_1 A_to_Y__B=1

option SCALE: Scale is set to 1e-06 for instance and model parameters
Doing analysis at TEMP = 12.051967 and TNOM = 27.000000

Using KLU as Direct Linear Solver
 Reference value :  7.15247e-08
 Reference value :  2.28470e-07
No. of Data Rows : 68030

  Measurements for Transient Analysis

tphl                =  8.21808e-10 targ=  2.91229e-08 trig=  2.83011e-08
tplh                =  2.14598e-09 targ=  1.09049e-07 trig=  1.06903e-07
i_vdd_avg           =  -4.56959e-07 from=  1.00000e-08 to=  3.30002e-07
power_avg_uw        =  7.99135e-01


Total analysis time (seconds) = 0.541572

Total elapsed time (seconds) = 0.687 

Total DRAM available = 16384.000 MB.
DRAM currently available =  111.547 MB.
Maximum ngspice program size =   25.766 MB.
Current ngspice program size =   25.766 MB.

