
Note: Compatibility modes selected: hs a


Circuit: SKY130 library cell oai21_1 A1_to_Y__A2=0,B1=1

option SCALE: Scale is set to 1e-06 for instance and model parameters
Doing analysis at TEMP = 105.045410 and TNOM = 27.000000

Using KLU as Direct Linear Solver
 Reference value :  3.09390e-08
 Reference value :  1.36231e-07
 Reference value :  2.28539e-07
 Reference value :  3.24551e-07
No. of Data Rows : 68030

  Measurements for Transient Analysis

tphl                =  1.77928e-09 targ=  2.76000e-08 trig=  2.58208e-08
tplh                =  3.50916e-09 targ=  1.02971e-07 trig=  9.94623e-08
i_vdd_avg           =  -1.77765e-06 from=  1.00000e-08 to=  3.30001e-07
power_avg_uw        =  2.88091e+00


Total analysis time (seconds) = 0.883306

Total elapsed time (seconds) = 1.054 

Total DRAM available = 16384.000 MB.
DRAM currently available =   97.656 MB.
Maximum ngspice program size =   28.031 MB.
Current ngspice program size =   28.031 MB.

