
Note: Compatibility modes selected: hs a


Circuit: SKY130 library cell inv_4 A_to_Y

option SCALE: Scale is set to 1e-06 for instance and model parameters
Doing analysis at TEMP = -24.908497 and TNOM = 27.000000

Using KLU as Direct Linear Solver
 Reference value :  4.60454e-08
 Reference value :  1.37568e-07
 Reference value :  2.29460e-07
 Reference value :  3.19983e-07
No. of Data Rows : 68034

  Measurements for Transient Analysis

tphl                =  1.27785e-09 targ=  3.00418e-08 trig=  2.87640e-08
tplh                =  2.92282e-09 targ=  1.11215e-07 trig=  1.08292e-07
i_vdd_avg           =  -1.23294e-06 from=  1.00000e-08 to=  3.30003e-07
power_avg_uw        =  2.14938e+00


Total analysis time (seconds) = 0.931021

Total elapsed time (seconds) = 1.062 

Total DRAM available = 16384.000 MB.
DRAM currently available =  135.562 MB.
Maximum ngspice program size =   25.781 MB.
Current ngspice program size =   25.781 MB.

