
Note: Compatibility modes selected: hs a


Circuit: SKY130 library cell nor2_4 A_to_Y__B=0

option SCALE: Scale is set to 1e-06 for instance and model parameters
Doing analysis at TEMP = 50.132843 and TNOM = 27.000000

Using KLU as Direct Linear Solver
 Reference value :  1.75864e-08
 Reference value :  6.14396e-08
 Reference value :  1.04070e-07
 Reference value :  1.49452e-07
 Reference value :  1.95375e-07
 Reference value :  2.40195e-07
 Reference value :  2.82467e-07
 Reference value :  3.29187e-07
No. of Data Rows : 68030

  Measurements for Transient Analysis

tphl                =  -4.87856e-11 targ=  2.66773e-08 trig=  2.67261e-08
tplh                =  1.08842e-09 targ=  1.03267e-07 trig=  1.02178e-07
i_vdd_avg           =  -2.75247e-06 from=  1.00000e-08 to=  3.30002e-07
power_avg_uw        =  5.43681e+00


Total analysis time (seconds) = 1.9438

Total elapsed time (seconds) = 2.092 

Total DRAM available = 16384.000 MB.
DRAM currently available =  103.453 MB.
Maximum ngspice program size =   26.344 MB.
Current ngspice program size =   26.344 MB.

