
Note: Compatibility modes selected: hs a


Circuit: SKY130 library cell mux2_1 A0_to_X__A1=0,S=0

option SCALE: Scale is set to 1e-06 for instance and model parameters
Doing analysis at TEMP = 31.077526 and TNOM = 27.000000

Using KLU as Direct Linear Solver
 Reference value :  1.68864e-08
 Reference value :  6.77365e-08
 Reference value :  1.22745e-07
 Reference value :  1.74125e-07
 Reference value :  2.25626e-07
 Reference value :  2.78010e-07
 Reference value :  3.30835e-07
No. of Data Rows : 68032

  Measurements for Transient Analysis

tplh                =  6.27037e-10 targ=  3.00965e-08 trig=  2.94695e-08
tphl                =  1.99032e-09 targ=  1.12399e-07 trig=  1.10408e-07
i_vdd_avg           =  -4.77889e-07 from=  1.00000e-08 to=  3.30000e-07
power_avg_uw        =  7.85051e-01


Total analysis time (seconds) = 1.67956

Total elapsed time (seconds) = 1.851 

Total DRAM available = 16384.000 MB.
DRAM currently available =  171.391 MB.
Maximum ngspice program size =   27.734 MB.
Current ngspice program size =   27.734 MB.

