
Note: Compatibility modes selected: hs a


Circuit: SKY130 library cell nand2_4 A_to_Y__B=1

option SCALE: Scale is set to 1e-06 for instance and model parameters
Doing analysis at TEMP = 53.747836 and TNOM = 27.000000

Using KLU as Direct Linear Solver
 Reference value :  1.77914e-08
 Reference value :  6.64913e-08
 Reference value :  1.13075e-07
 Reference value :  1.57485e-07
 Reference value :  2.03731e-07
 Reference value :  2.49871e-07
 Reference value :  2.95645e-07
No. of Data Rows : 68032

  Measurements for Transient Analysis

tphl                =  7.40484e-10 targ=  2.79024e-08 trig=  2.71619e-08
tplh                =  1.32683e-09 targ=  1.04813e-07 trig=  1.03486e-07
i_vdd_avg           =  -6.01257e-07 from=  1.00000e-08 to=  3.30000e-07
power_avg_uw        =  1.04675e+00


Total analysis time (seconds) = 1.84735

Total elapsed time (seconds) = 2.001 

Total DRAM available = 16384.000 MB.
DRAM currently available =  113.359 MB.
Maximum ngspice program size =   26.375 MB.
Current ngspice program size =   26.375 MB.

