
Note: Compatibility modes selected: hs a


Circuit: SKY130 library cell nand2_1 A_to_Y__B=1

option SCALE: Scale is set to 1e-06 for instance and model parameters
Doing analysis at TEMP = -11.379892 and TNOM = 27.000000

Using KLU as Direct Linear Solver
 Reference value :  5.61226e-08
 Reference value :  2.12598e-07
No. of Data Rows : 68032

  Measurements for Transient Analysis

tphl                =  2.26459e-09 targ=  3.00421e-08 trig=  2.77775e-08
tplh                =  3.50838e-09 targ=  1.08841e-07 trig=  1.05333e-07
i_vdd_avg           =  -1.27044e-06 from=  1.00000e-08 to=  3.30003e-07
power_avg_uw        =  2.31194e+00


Total analysis time (seconds) = 0.559453

Total elapsed time (seconds) = 0.712 

Total DRAM available = 16384.000 MB.
DRAM currently available =  150.172 MB.
Maximum ngspice program size =   25.234 MB.
Current ngspice program size =   25.234 MB.

