
Note: Compatibility modes selected: hs a


Circuit: SKY130 library cell aoi21_1 A1_to_Y__A2=1,B1=0

option SCALE: Scale is set to 1e-06 for instance and model parameters
Doing analysis at TEMP = 81.165230 and TNOM = 27.000000

Using KLU as Direct Linear Solver
 Reference value :  2.87925e-08
 Reference value :  1.28579e-07
 Reference value :  2.28166e-07
 Reference value :  3.21099e-07
No. of Data Rows : 68034

  Measurements for Transient Analysis

tphl                =  1.62565e-09 targ=  2.84522e-08 trig=  2.68265e-08
tplh                =  2.87932e-09 targ=  1.05359e-07 trig=  1.02480e-07
i_vdd_avg           =  -1.09380e-06 from=  1.00000e-08 to=  3.30004e-07
power_avg_uw        =  1.81485e+00


Total analysis time (seconds) = 0.894592

Total elapsed time (seconds) = 1.069 

Total DRAM available = 16384.000 MB.
DRAM currently available =  147.469 MB.
Maximum ngspice program size =   26.297 MB.
Current ngspice program size =   26.297 MB.

