
Note: Compatibility modes selected: hs a


Circuit: SKY130 library cell oai21_4 A1_to_Y__A2=0,B1=1

option SCALE: Scale is set to 1e-06 for instance and model parameters
Doing analysis at TEMP = 119.920600 and TNOM = 27.000000

Using KLU as Direct Linear Solver
 Reference value :  8.27140e-09
 Reference value :  3.68115e-08
 Reference value :  6.31815e-08
 Reference value :  9.14215e-08
 Reference value :  1.20870e-07
 Reference value :  1.45665e-07
 Reference value :  1.73870e-07
 Reference value :  2.01766e-07
 Reference value :  2.29406e-07
 Reference value :  2.57776e-07
 Reference value :  2.86360e-07
 Reference value :  3.14595e-07
No. of Data Rows : 68032

  Measurements for Transient Analysis

tphl                =  -2.38499e-10 targ=  2.71860e-08 trig=  2.74245e-08
tplh                =  7.28328e-10 targ=  1.05002e-07 trig=  1.04273e-07
i_vdd_avg           =  -2.29169e-06 from=  1.00000e-08 to=  3.30000e-07
power_avg_uw        =  4.22464e+00


Total analysis time (seconds) = 3.1398

Total elapsed time (seconds) = 3.323 

Total DRAM available = 16384.000 MB.
DRAM currently available =  141.922 MB.
Maximum ngspice program size =   28.375 MB.
Current ngspice program size =   28.375 MB.

