
Note: Compatibility modes selected: hs a


Circuit: SKY130 library cell inv_4 A_to_Y

option SCALE: Scale is set to 1e-06 for instance and model parameters
Doing analysis at TEMP = -38.215331 and TNOM = 27.000000

Using KLU as Direct Linear Solver
 Reference value :  3.45835e-08
 Reference value :  1.28540e-07
 Reference value :  2.18744e-07
 Reference value :  3.09425e-07
No. of Data Rows : 68032

  Measurements for Transient Analysis

tphl                =  2.75542e-10 targ=  2.74561e-08 trig=  2.71805e-08
tplh                =  1.21559e-09 targ=  1.04757e-07 trig=  1.03542e-07
i_vdd_avg           =  -2.25921e-07 from=  1.00000e-08 to=  3.30005e-07
power_avg_uw        =  4.13770e-01


Total analysis time (seconds) = 0.931158

Total elapsed time (seconds) = 1.071 

Total DRAM available = 16384.000 MB.
DRAM currently available =  135.562 MB.
Maximum ngspice program size =   25.625 MB.
Current ngspice program size =   25.625 MB.

