
Note: Compatibility modes selected: hs a


Circuit: SKY130 library cell mux2_4 A0_to_X__A1=0,S=0

option SCALE: Scale is set to 1e-06 for instance and model parameters
Doing analysis at TEMP = -11.353370 and TNOM = 27.000000

Using KLU as Direct Linear Solver
 Reference value :  1.07214e-08
 Reference value :  4.70306e-08
 Reference value :  8.38206e-08
 Reference value :  1.17984e-07
 Reference value :  1.54589e-07
 Reference value :  1.89308e-07
 Reference value :  2.25571e-07
 Reference value :  2.63396e-07
 Reference value :  2.98049e-07
 Reference value :  3.36634e-07
No. of Data Rows : 68034

  Measurements for Transient Analysis

tplh                =  5.75782e-10 targ=  2.93898e-08 trig=  2.88140e-08
tphl                =  1.96974e-09 targ=  1.10412e-07 trig=  1.08442e-07
i_vdd_avg           =  -1.93721e-06 from=  1.00000e-08 to=  3.30004e-07
power_avg_uw        =  3.45768e+00


Total analysis time (seconds) = 2.40161

Total elapsed time (seconds) = 2.567 

Total DRAM available = 16384.000 MB.
DRAM currently available =  185.219 MB.
Maximum ngspice program size =   25.750 MB.
Current ngspice program size =   25.750 MB.

