
Note: Compatibility modes selected: hs a


Circuit: SKY130 library cell aoi21_4 A1_to_Y__A2=1,B1=0

option SCALE: Scale is set to 1e-06 for instance and model parameters
Doing analysis at TEMP = 37.855128 and TNOM = 27.000000

Using KLU as Direct Linear Solver
 Reference value :  6.77140e-09
 Reference value :  3.50081e-08
 Reference value :  6.26131e-08
 Reference value :  9.19981e-08
 Reference value :  1.22424e-07
 Reference value :  1.50809e-07
 Reference value :  1.79609e-07
 Reference value :  2.08648e-07
 Reference value :  2.37308e-07
 Reference value :  2.65963e-07
 Reference value :  2.94119e-07
 Reference value :  3.21109e-07
No. of Data Rows : 68032

  Measurements for Transient Analysis

tphl                =  1.43726e-09 targ=  2.87076e-08 trig=  2.72703e-08
tplh                =  2.48758e-09 targ=  1.06299e-07 trig=  1.03811e-07
i_vdd_avg           =  -1.22424e-06 from=  1.00000e-08 to=  3.30004e-07
power_avg_uw        =  2.01158e+00


Total analysis time (seconds) = 3.0682

Total elapsed time (seconds) = 3.247 

Total DRAM available = 16384.000 MB.
DRAM currently available =  123.516 MB.
Maximum ngspice program size =   26.156 MB.
Current ngspice program size =   26.156 MB.

