
Note: Compatibility modes selected: hs a


Circuit: SKY130 library cell nand2_1 A_to_Y__B=1

option SCALE: Scale is set to 1e-06 for instance and model parameters
Doing analysis at TEMP = 105.726220 and TNOM = 27.000000

Using KLU as Direct Linear Solver
 Reference value :  5.51551e-08
 Reference value :  2.14010e-07
No. of Data Rows : 68034

  Measurements for Transient Analysis

tphl                =  5.70560e-10 targ=  2.58994e-08 trig=  2.53288e-08
tplh                =  9.07804e-10 targ=  9.88942e-08 trig=  9.79864e-08
i_vdd_avg           =  -8.53729e-07 from=  1.00000e-08 to=  3.30003e-07
power_avg_uw        =  1.52378e+00


Total analysis time (seconds) = 0.563054

Total elapsed time (seconds) = 0.717 

Total DRAM available = 16384.000 MB.
DRAM currently available =  111.547 MB.
Maximum ngspice program size =   26.234 MB.
Current ngspice program size =   26.234 MB.

