
Note: Compatibility modes selected: hs a


Circuit: SKY130 library cell oai21_1 A1_to_Y__A2=0,B1=1

option SCALE: Scale is set to 1e-06 for instance and model parameters
Doing analysis at TEMP = 10.352713 and TNOM = 27.000000

Using KLU as Direct Linear Solver
 Reference value :  2.89383e-08
 Reference value :  1.25069e-07
 Reference value :  2.26538e-07
 Reference value :  3.22864e-07
No. of Data Rows : 68032

  Measurements for Transient Analysis

tphl                =  8.99675e-10 targ=  2.70976e-08 trig=  2.61979e-08
tplh                =  2.33367e-09 targ=  1.02927e-07 trig=  1.00594e-07
i_vdd_avg           =  -1.21543e-06 from=  1.00000e-08 to=  3.30004e-07
power_avg_uw        =  2.08556e+00


Total analysis time (seconds) = 0.875005

Total elapsed time (seconds) = 1.045 

Total DRAM available = 16384.000 MB.
DRAM currently available =  123.750 MB.
Maximum ngspice program size =   24.734 MB.
Current ngspice program size =   24.734 MB.

