
Note: Compatibility modes selected: hs a


Circuit: SKY130 library cell xor2_1 A_to_X__B=0

option SCALE: Scale is set to 1e-06 for instance and model parameters
Doing analysis at TEMP = -8.788835 and TNOM = 27.000000

Using KLU as Direct Linear Solver
 Reference value :  2.55409e-08
 Reference value :  9.62642e-08
 Reference value :  1.66419e-07
 Reference value :  2.33981e-07
 Reference value :  3.00154e-07
No. of Data Rows : 68034

  Measurements for Transient Analysis

tplh                =  2.86207e-09 targ=  2.69488e-08 trig=  2.40867e-08
tphl                =  6.55112e-10 targ=  9.49152e-08 trig=  9.42600e-08
i_vdd_avg           =  -2.10767e-06 from=  1.00000e-08 to=  3.30004e-07
power_avg_uw        =  3.73411e+00


Total analysis time (seconds) = 1.25262

Total elapsed time (seconds) = 1.397 

Total DRAM available = 16384.000 MB.
DRAM currently available =  128.297 MB.
Maximum ngspice program size =   25.297 MB.
Current ngspice program size =   25.297 MB.

