
Note: Compatibility modes selected: hs a


Circuit: SKY130 library cell nor2_4 A_to_Y__B=0

option SCALE: Scale is set to 1e-06 for instance and model parameters
Doing analysis at TEMP = -12.067050 and TNOM = 27.000000

Using KLU as Direct Linear Solver
 Reference value :  1.49064e-08
 Reference value :  5.94980e-08
 Reference value :  1.07338e-07
 Reference value :  1.52034e-07
 Reference value :  1.95768e-07
 Reference value :  2.41708e-07
 Reference value :  2.85749e-07
 Reference value :  3.28599e-07
No. of Data Rows : 68032

  Measurements for Transient Analysis

tphl                =  2.61735e-10 targ=  2.91545e-08 trig=  2.88928e-08
tplh                =  2.13458e-09 targ=  1.10813e-07 trig=  1.08678e-07
i_vdd_avg           =  -9.71331e-07 from=  1.00000e-08 to=  3.30004e-07
power_avg_uw        =  1.73011e+00


Total analysis time (seconds) = 1.90843

Total elapsed time (seconds) = 2.069 

Total DRAM available = 16384.000 MB.
DRAM currently available =  123.125 MB.
Maximum ngspice program size =   26.766 MB.
Current ngspice program size =   26.766 MB.

