
Note: Compatibility modes selected: hs a


Circuit: SKY130 library cell xor2_4 A_to_X__B=0

option SCALE: Scale is set to 1e-06 for instance and model parameters
Doing analysis at TEMP = 32.932834 and TNOM = 27.000000

Using KLU as Direct Linear Solver
 Reference value :  5.14140e-09
 Reference value :  2.33914e-08
 Reference value :  4.02526e-08
 Reference value :  5.70626e-08
 Reference value :  7.43976e-08
 Reference value :  9.18676e-08
 Reference value :  1.09028e-07
 Reference value :  1.27083e-07
 Reference value :  1.44668e-07
 Reference value :  1.61098e-07
 Reference value :  1.77073e-07
 Reference value :  1.95033e-07
 Reference value :  2.11933e-07
 Reference value :  2.29128e-07
 Reference value :  2.46088e-07
 Reference value :  2.63703e-07
 Reference value :  2.81163e-07
 Reference value :  2.98178e-07
 Reference value :  3.15413e-07
 Reference value :  3.33023e-07
No. of Data Rows : 68032

  Measurements for Transient Analysis

tplh                =  9.36632e-10 targ=  2.97392e-08 trig=  2.88026e-08
tphl                =  1.52754e-09 targ=  1.09935e-07 trig=  1.08408e-07
i_vdd_avg           =  -2.39362e-06 from=  1.00000e-08 to=  3.30003e-07
power_avg_uw        =  3.92114e+00


Total analysis time (seconds) = 4.98244

Total elapsed time (seconds) = 5.150 

Total DRAM available = 16384.000 MB.
DRAM currently available =  130.578 MB.
Maximum ngspice program size =   25.719 MB.
Current ngspice program size =   25.719 MB.

