
Note: Compatibility modes selected: hs a


Circuit: SKY130 library cell xor2_4 A_to_X__B=0

option SCALE: Scale is set to 1e-06 for instance and model parameters
Doing analysis at TEMP = 78.399431 and TNOM = 27.000000

Using KLU as Direct Linear Solver
 Reference value :  3.70640e-09
 Reference value :  2.09464e-08
 Reference value :  3.82284e-08
 Reference value :  5.52234e-08
 Reference value :  7.21534e-08
 Reference value :  8.97734e-08
 Reference value :  1.07178e-07
 Reference value :  1.24859e-07
 Reference value :  1.41889e-07
 Reference value :  1.58974e-07
 Reference value :  1.75614e-07
 Reference value :  1.93543e-07
 Reference value :  2.09973e-07
 Reference value :  2.27278e-07
 Reference value :  2.44593e-07
 Reference value :  2.62023e-07
 Reference value :  2.79089e-07
 Reference value :  2.96384e-07
 Reference value :  3.13354e-07
 Reference value :  3.30459e-07
No. of Data Rows : 68032

  Measurements for Transient Analysis

tplh                =  1.13905e-09 targ=  3.10945e-08 trig=  2.99554e-08
tphl                =  1.48496e-09 targ=  1.13351e-07 trig=  1.11866e-07
i_vdd_avg           =  -2.55667e-06 from=  1.00000e-08 to=  3.30004e-07
power_avg_uw        =  4.61752e+00


Total analysis time (seconds) = 5.01943

Total elapsed time (seconds) = 5.211 

Total DRAM available = 16384.000 MB.
DRAM currently available =  133.500 MB.
Maximum ngspice program size =   27.719 MB.
Current ngspice program size =   27.719 MB.

