
Note: Compatibility modes selected: hs a


Circuit: SKY130 library cell nor2_4 A_to_Y__B=0

option SCALE: Scale is set to 1e-06 for instance and model parameters
Doing analysis at TEMP = 16.093560 and TNOM = 27.000000

Using KLU as Direct Linear Solver
 Reference value :  1.31114e-08
 Reference value :  5.98706e-08
 Reference value :  1.03241e-07
 Reference value :  1.49624e-07
 Reference value :  1.96391e-07
 Reference value :  2.43821e-07
 Reference value :  2.89014e-07
 Reference value :  3.34554e-07
No. of Data Rows : 68034

  Measurements for Transient Analysis

tphl                =  1.65787e-10 targ=  2.97173e-08 trig=  2.95516e-08
tplh                =  2.04675e-09 targ=  1.12701e-07 trig=  1.10655e-07
i_vdd_avg           =  -1.14156e-06 from=  1.00000e-08 to=  3.30004e-07
power_avg_uw        =  2.05852e+00


Total analysis time (seconds) = 1.87584

Total elapsed time (seconds) = 2.047 

Total DRAM available = 16384.000 MB.
DRAM currently available =  125.875 MB.
Maximum ngspice program size =   26.109 MB.
Current ngspice program size =   26.109 MB.

