
Note: Compatibility modes selected: hs a


Circuit: SKY130 library cell nor2_4 A_to_Y__B=0

option SCALE: Scale is set to 1e-06 for instance and model parameters
Doing analysis at TEMP = 121.312830 and TNOM = 27.000000

Using KLU as Direct Linear Solver
 Reference value :  1.26514e-08
 Reference value :  5.61528e-08
 Reference value :  1.01918e-07
 Reference value :  1.47628e-07
 Reference value :  1.90503e-07
 Reference value :  2.34008e-07
 Reference value :  2.77248e-07
 Reference value :  3.22833e-07
No. of Data Rows : 68032

  Measurements for Transient Analysis

tphl                =  2.79791e-10 targ=  2.43474e-08 trig=  2.40676e-08
tplh                =  1.02118e-09 targ=  9.52241e-08 trig=  9.42029e-08
i_vdd_avg           =  -1.86452e-06 from=  1.00000e-08 to=  3.30003e-07
power_avg_uw        =  3.05169e+00


Total analysis time (seconds) = 1.95027

Total elapsed time (seconds) = 2.113 

Total DRAM available = 16384.000 MB.
DRAM currently available =  186.906 MB.
Maximum ngspice program size =   28.484 MB.
Current ngspice program size =   28.484 MB.

