
Note: Compatibility modes selected: hs a


Circuit: SKY130 library cell aoi21_1 A1_to_Y__A2=1,B1=0

option SCALE: Scale is set to 1e-06 for instance and model parameters
Doing analysis at TEMP = -9.248768 and TNOM = 27.000000

Using KLU as Direct Linear Solver
 Reference value :  3.23825e-08
 Reference value :  1.33768e-07
 Reference value :  2.39783e-07
No. of Data Rows : 68032

  Measurements for Transient Analysis

tphl                =  1.40342e-09 targ=  3.08784e-08 trig=  2.94750e-08
tplh                =  4.53573e-09 targ=  1.14961e-07 trig=  1.10425e-07
i_vdd_avg           =  -1.73141e-06 from=  1.00000e-08 to=  3.30003e-07
power_avg_uw        =  2.96998e+00


Total analysis time (seconds) = 0.835996

Total elapsed time (seconds) = 0.995 

Total DRAM available = 16384.000 MB.
DRAM currently available =  169.766 MB.
Maximum ngspice program size =   23.609 MB.
Current ngspice program size =   23.609 MB.

