
Note: Compatibility modes selected: hs a


Circuit: SKY130 library cell oai21_1 A1_to_Y__A2=0,B1=1

option SCALE: Scale is set to 1e-06 for instance and model parameters
Doing analysis at TEMP = -31.991134 and TNOM = 27.000000

Using KLU as Direct Linear Solver
 Reference value :  3.31314e-08
 Reference value :  1.35075e-07
 Reference value :  2.34146e-07
 Reference value :  3.32000e-07
No. of Data Rows : 68032

  Measurements for Transient Analysis

tphl                =  8.91408e-10 targ=  2.89834e-08 trig=  2.80919e-08
tplh                =  2.68280e-09 targ=  1.08959e-07 trig=  1.06276e-07
i_vdd_avg           =  -2.81634e-07 from=  1.00000e-08 to=  3.30000e-07
power_avg_uw        =  4.66672e-01


Total analysis time (seconds) = 0.900562

Total elapsed time (seconds) = 1.069 

Total DRAM available = 16384.000 MB.
DRAM currently available =   48.703 MB.
Maximum ngspice program size =   27.609 MB.
Current ngspice program size =   27.609 MB.

