
Note: Compatibility modes selected: hs a


Circuit: SKY130 library cell nor2_4 A_to_Y__B=0

option SCALE: Scale is set to 1e-06 for instance and model parameters
Doing analysis at TEMP = 55.363989 and TNOM = 27.000000

Using KLU as Direct Linear Solver
 Reference value :  1.58714e-08
 Reference value :  6.10105e-08
 Reference value :  1.04608e-07
 Reference value :  1.50048e-07
 Reference value :  1.95685e-07
 Reference value :  2.38450e-07
 Reference value :  2.80618e-07
 Reference value :  3.24533e-07
No. of Data Rows : 68034

  Measurements for Transient Analysis

tphl                =  6.39836e-10 targ=  2.58688e-08 trig=  2.52290e-08
tplh                =  1.31598e-09 targ=  9.90030e-08 trig=  9.76870e-08
i_vdd_avg           =  -2.19941e-06 from=  1.00000e-08 to=  3.30003e-07
power_avg_uw        =  4.21549e+00


Total analysis time (seconds) = 1.94907

Total elapsed time (seconds) = 2.103 

Total DRAM available = 16384.000 MB.
DRAM currently available =  135.641 MB.
Maximum ngspice program size =   25.203 MB.
Current ngspice program size =   25.203 MB.

