
Note: Compatibility modes selected: hs a


Circuit: SKY130 library cell nor2_1 A_to_Y__B=0

option SCALE: Scale is set to 1e-06 for instance and model parameters
Doing analysis at TEMP = 61.739497 and TNOM = 27.000000

Using KLU as Direct Linear Solver
 Reference value :  5.89936e-08
 Reference value :  1.96359e-07
No. of Data Rows : 68032

  Measurements for Transient Analysis

tphl                =  2.44877e-10 targ=  2.47030e-08 trig=  2.44581e-08
tplh                =  6.36076e-10 targ=  9.60103e-08 trig=  9.53742e-08
i_vdd_avg           =  -6.97052e-07 from=  1.00000e-08 to=  3.30005e-07
power_avg_uw        =  1.36199e+00


Total analysis time (seconds) = 0.603735

Total elapsed time (seconds) = 0.746 

Total DRAM available = 16384.000 MB.
DRAM currently available =   98.688 MB.
Maximum ngspice program size =   27.672 MB.
Current ngspice program size =   27.672 MB.

