
Note: Compatibility modes selected: hs a


Circuit: SKY130 library cell nand2_1 A_to_Y__B=1

option SCALE: Scale is set to 1e-06 for instance and model parameters
Doing analysis at TEMP = 96.511047 and TNOM = 27.000000

Using KLU as Direct Linear Solver
 Reference value :  5.27770e-08
 Reference value :  2.17052e-07
No. of Data Rows : 68032

  Measurements for Transient Analysis

tphl                =  5.01081e-11 targ=  2.61523e-08 trig=  2.61022e-08
tplh                =  5.70010e-10 targ=  1.00877e-07 trig=  1.00307e-07
i_vdd_avg           =  -5.58089e-07 from=  1.00000e-08 to=  3.30001e-07
power_avg_uw        =  1.07782e+00


Total analysis time (seconds) = 0.550457

Total elapsed time (seconds) = 0.703 

Total DRAM available = 16384.000 MB.
DRAM currently available =  150.172 MB.
Maximum ngspice program size =   26.047 MB.
Current ngspice program size =   26.047 MB.

