
Note: Compatibility modes selected: hs a


Circuit: SKY130 library cell nor2_4 A_to_Y__B=0

option SCALE: Scale is set to 1e-06 for instance and model parameters
Doing analysis at TEMP = 0.671142 and TNOM = 27.000000

Using KLU as Direct Linear Solver
 Reference value :  1.26164e-08
 Reference value :  5.63005e-08
 Reference value :  1.00225e-07
 Reference value :  1.43523e-07
 Reference value :  1.88323e-07
 Reference value :  2.31975e-07
 Reference value :  2.74980e-07
 Reference value :  3.19803e-07
No. of Data Rows : 68034

  Measurements for Transient Analysis

tphl                =  -3.44445e-10 targ=  2.93946e-08 trig=  2.97390e-08
tplh                =  2.17840e-09 targ=  1.13395e-07 trig=  1.11217e-07
i_vdd_avg           =  -3.09770e-06 from=  1.00000e-08 to=  3.30003e-07
power_avg_uw        =  5.88788e+00


Total analysis time (seconds) = 1.96393

Total elapsed time (seconds) = 2.126 

Total DRAM available = 16384.000 MB.
DRAM currently available =  186.906 MB.
Maximum ngspice program size =   26.469 MB.
Current ngspice program size =   26.469 MB.

