
Note: Compatibility modes selected: hs a


Circuit: SKY130 library cell aoi21_1 A1_to_Y__A2=1,B1=0

option SCALE: Scale is set to 1e-06 for instance and model parameters
Doing analysis at TEMP = -27.165522 and TNOM = 27.000000

Using KLU as Direct Linear Solver
 Reference value :  2.92725e-08
 Reference value :  1.31857e-07
 Reference value :  2.33302e-07
 Reference value :  3.31777e-07
No. of Data Rows : 68032

  Measurements for Transient Analysis

tphl                =  2.46414e-09 targ=  3.00439e-08 trig=  2.75798e-08
tplh                =  5.89418e-09 targ=  1.10633e-07 trig=  1.04739e-07
i_vdd_avg           =  -2.01012e-06 from=  1.00000e-08 to=  3.30002e-07
power_avg_uw        =  3.30737e+00


Total analysis time (seconds) = 0.859385

Total elapsed time (seconds) = 1.022 

Total DRAM available = 16384.000 MB.
DRAM currently available =  142.531 MB.
Maximum ngspice program size =   24.734 MB.
Current ngspice program size =   24.734 MB.

