
Note: Compatibility modes selected: hs a


Circuit: SKY130 library cell aoi21_1 A1_to_Y__A2=1,B1=0

option SCALE: Scale is set to 1e-06 for instance and model parameters
Doing analysis at TEMP = 63.428569 and TNOM = 27.000000

Using KLU as Direct Linear Solver
 Reference value :  2.49475e-08
 Reference value :  1.22470e-07
 Reference value :  2.23924e-07
 Reference value :  3.31170e-07
No. of Data Rows : 68030

  Measurements for Transient Analysis

tphl                =  5.12982e-10 targ=  2.51137e-08 trig=  2.46007e-08
tplh                =  8.58644e-10 targ=  9.66608e-08 trig=  9.58022e-08
i_vdd_avg           =  -2.98475e-07 from=  1.00000e-08 to=  3.30000e-07
power_avg_uw        =  5.22223e-01


Total analysis time (seconds) = 0.864612

Total elapsed time (seconds) = 1.039 

Total DRAM available = 16384.000 MB.
DRAM currently available =  122.281 MB.
Maximum ngspice program size =   25.766 MB.
Current ngspice program size =   25.766 MB.

