
Note: Compatibility modes selected: hs a


Circuit: SKY130 library cell nor2_4 A_to_Y__B=0

option SCALE: Scale is set to 1e-06 for instance and model parameters
Doing analysis at TEMP = 62.089393 and TNOM = 27.000000

Using KLU as Direct Linear Solver
 Reference value :  1.23164e-08
 Reference value :  5.94207e-08
 Reference value :  1.03751e-07
 Reference value :  1.48134e-07
 Reference value :  1.93446e-07
 Reference value :  2.38361e-07
 Reference value :  2.85739e-07
 Reference value :  3.32159e-07
No. of Data Rows : 68034

  Measurements for Transient Analysis

tphl                =  -2.35938e-10 targ=  2.84106e-08 trig=  2.86466e-08
tplh                =  1.02668e-09 targ=  1.08966e-07 trig=  1.07940e-07
i_vdd_avg           =  -1.23757e-06 from=  1.00000e-08 to=  3.30004e-07
power_avg_uw        =  2.38066e+00


Total analysis time (seconds) = 1.88781

Total elapsed time (seconds) = 2.060 

Total DRAM available = 16384.000 MB.
DRAM currently available =  123.125 MB.
Maximum ngspice program size =   25.875 MB.
Current ngspice program size =   25.875 MB.

