
Note: Compatibility modes selected: hs a


Circuit: SKY130 library cell aoi21_4 A1_to_Y__A2=1,B1=0

option SCALE: Scale is set to 1e-06 for instance and model parameters
Doing analysis at TEMP = 114.811700 and TNOM = 27.000000

Using KLU as Direct Linear Solver
 Reference value :  6.84140e-09
 Reference value :  3.55115e-08
 Reference value :  6.48965e-08
 Reference value :  9.33665e-08
 Reference value :  1.22590e-07
 Reference value :  1.51840e-07
 Reference value :  1.79485e-07
 Reference value :  2.06696e-07
 Reference value :  2.34696e-07
 Reference value :  2.61736e-07
 Reference value :  2.90735e-07
 Reference value :  3.17740e-07
No. of Data Rows : 68032

  Measurements for Transient Analysis

tphl                =  1.80713e-10 targ=  2.61827e-08 trig=  2.60020e-08
tplh                =  7.31165e-10 targ=  1.00737e-07 trig=  1.00006e-07
i_vdd_avg           =  -1.83628e-06 from=  1.00000e-08 to=  3.30000e-07
power_avg_uw        =  3.34560e+00


Total analysis time (seconds) = 3.08952

Total elapsed time (seconds) = 3.259 

Total DRAM available = 16384.000 MB.
DRAM currently available =  107.516 MB.
Maximum ngspice program size =   25.641 MB.
Current ngspice program size =   25.641 MB.

