
Note: Compatibility modes selected: hs a


Circuit: SKY130 library cell nand2_4 A_to_Y__B=1

option SCALE: Scale is set to 1e-06 for instance and model parameters
Doing analysis at TEMP = 124.157780 and TNOM = 27.000000

Using KLU as Direct Linear Solver
 Reference value :  1.96914e-08
 Reference value :  6.69325e-08
 Reference value :  1.12213e-07
 Reference value :  1.60833e-07
 Reference value :  2.07773e-07
 Reference value :  2.54738e-07
 Reference value :  3.02333e-07
No. of Data Rows : 68032

  Measurements for Transient Analysis

tphl                =  -9.96562e-11 targ=  2.93954e-08 trig=  2.94950e-08
tplh                =  6.35408e-10 targ=  1.11120e-07 trig=  1.10485e-07
i_vdd_avg           =  -1.35926e-06 from=  1.00000e-08 to=  3.30003e-07
power_avg_uw        =  2.39316e+00


Total analysis time (seconds) = 1.80454

Total elapsed time (seconds) = 1.957 

Total DRAM available = 16384.000 MB.
DRAM currently available =  145.406 MB.
Maximum ngspice program size =   25.500 MB.
Current ngspice program size =   25.500 MB.

