
Note: Compatibility modes selected: hs a


Circuit: SKY130 library cell nand3_4 A_to_Y__B=1,C=1

option SCALE: Scale is set to 1e-06 for instance and model parameters
Doing analysis at TEMP = 99.247432 and TNOM = 27.000000

Using KLU as Direct Linear Solver
 Reference value :  7.77640e-09
 Reference value :  3.66797e-08
 Reference value :  6.45147e-08
 Reference value :  9.20997e-08
 Reference value :  1.21167e-07
 Reference value :  1.49152e-07
 Reference value :  1.76857e-07
 Reference value :  2.04160e-07
 Reference value :  2.32190e-07
 Reference value :  2.59990e-07
 Reference value :  2.87302e-07
 Reference value :  3.14552e-07
No. of Data Rows : 68030

  Measurements for Transient Analysis

tphl                =  8.28994e-10 targ=  3.04526e-08 trig=  2.96236e-08
tplh                =  1.61283e-09 targ=  1.12484e-07 trig=  1.10871e-07
i_vdd_avg           =  -2.72195e-06 from=  1.00000e-08 to=  3.30002e-07
power_avg_uw        =  5.09447e+00


Total analysis time (seconds) = 3.05138

Total elapsed time (seconds) = 3.227 

Total DRAM available = 16384.000 MB.
DRAM currently available =  131.781 MB.
Maximum ngspice program size =   27.281 MB.
Current ngspice program size =   27.281 MB.

