
Note: Compatibility modes selected: hs a


Circuit: SKY130 library cell aoi21_1 A1_to_Y__A2=1,B1=0

option SCALE: Scale is set to 1e-06 for instance and model parameters
Doing analysis at TEMP = 73.790000 and TNOM = 27.000000

Using KLU as Direct Linear Solver
 Reference value :  3.87442e-08
 Reference value :  1.40766e-07
 Reference value :  2.41479e-07
No. of Data Rows : 68030

  Measurements for Transient Analysis

tphl                =  3.67913e-09 targ=  3.14600e-08 trig=  2.77808e-08
tplh                =  6.36176e-09 targ=  1.11704e-07 trig=  1.05343e-07
i_vdd_avg           =  -2.18692e-06 from=  1.00000e-08 to=  3.30001e-07
power_avg_uw        =  3.70426e+00


Total analysis time (seconds) = 0.857844

Total elapsed time (seconds) = 1.047 

Total DRAM available = 16384.000 MB.
DRAM currently available =  147.469 MB.
Maximum ngspice program size =   24.859 MB.
Current ngspice program size =   24.859 MB.

