
Note: Compatibility modes selected: hs a


Circuit: SKY130 library cell xor2_4 A_to_X__B=0

option SCALE: Scale is set to 1e-06 for instance and model parameters
Doing analysis at TEMP = 59.100733 and TNOM = 27.000000

Using KLU as Direct Linear Solver
 Reference value :  4.04640e-09
 Reference value :  2.14364e-08
 Reference value :  3.82440e-08
 Reference value :  5.61190e-08
 Reference value :  7.20740e-08
 Reference value :  8.94140e-08
 Reference value :  1.05605e-07
 Reference value :  1.22140e-07
 Reference value :  1.39905e-07
 Reference value :  1.56125e-07
 Reference value :  1.74480e-07
 Reference value :  1.91539e-07
 Reference value :  2.09484e-07
 Reference value :  2.26019e-07
 Reference value :  2.43384e-07
 Reference value :  2.60720e-07
 Reference value :  2.77935e-07
 Reference value :  2.94555e-07
 Reference value :  3.12590e-07
 Reference value :  3.29715e-07
No. of Data Rows : 68030

  Measurements for Transient Analysis

tplh                =  5.01355e-10 targ=  2.60771e-08 trig=  2.55757e-08
tphl                =  6.14258e-10 targ=  9.93415e-08 trig=  9.87272e-08
i_vdd_avg           =  -1.20745e-06 from=  1.00000e-08 to=  3.30000e-07
power_avg_uw        =  2.32771e+00


Total analysis time (seconds) = 5.15326

Total elapsed time (seconds) = 5.342 

Total DRAM available = 16384.000 MB.
DRAM currently available =  137.703 MB.
Maximum ngspice program size =   28.125 MB.
Current ngspice program size =   12.422 MB.

