
Note: Compatibility modes selected: hs a


Circuit: SKY130 library cell mux2_1 A0_to_X__A1=0,S=0

option SCALE: Scale is set to 1e-06 for instance and model parameters
Doing analysis at TEMP = -3.199192 and TNOM = 27.000000

Using KLU as Direct Linear Solver
 Reference value :  1.43514e-08
 Reference value :  6.32634e-08
 Reference value :  1.15454e-07
 Reference value :  1.70619e-07
 Reference value :  2.25783e-07
 Reference value :  2.77069e-07
 Reference value :  3.30429e-07
No. of Data Rows : 68032

  Measurements for Transient Analysis

tplh                =  1.33181e-09 targ=  2.59823e-08 trig=  2.46504e-08
tphl                =  1.07066e-09 targ=  9.70220e-08 trig=  9.59513e-08
i_vdd_avg           =  -1.02227e-06 from=  1.00000e-08 to=  3.30004e-07
power_avg_uw        =  1.76838e+00


Total analysis time (seconds) = 1.65163

Total elapsed time (seconds) = 1.828 

Total DRAM available = 16384.000 MB.
DRAM currently available =  117.047 MB.
Maximum ngspice program size =   25.359 MB.
Current ngspice program size =   25.359 MB.

