
Note: Compatibility modes selected: hs a


Circuit: SKY130 library cell mux2_4 A0_to_X__A1=0,S=0

option SCALE: Scale is set to 1e-06 for instance and model parameters
Doing analysis at TEMP = 52.707213 and TNOM = 27.000000

Using KLU as Direct Linear Solver
 Reference value :  9.80140e-09
 Reference value :  4.75288e-08
 Reference value :  8.33138e-08
 Reference value :  1.19025e-07
 Reference value :  1.55475e-07
 Reference value :  1.91069e-07
 Reference value :  2.28784e-07
 Reference value :  2.65435e-07
 Reference value :  3.02035e-07
 Reference value :  3.37575e-07
No. of Data Rows : 68030

  Measurements for Transient Analysis

tplh                =  6.62271e-10 targ=  2.69404e-08 trig=  2.62782e-08
tphl                =  1.15989e-09 targ=  1.01994e-07 trig=  1.00834e-07
i_vdd_avg           =  -8.03530e-07 from=  1.00000e-08 to=  3.30000e-07
power_avg_uw        =  1.54554e+00


Total analysis time (seconds) = 2.38721

Total elapsed time (seconds) = 2.565 

Total DRAM available = 16384.000 MB.
DRAM currently available =  185.219 MB.
Maximum ngspice program size =   26.719 MB.
Current ngspice program size =   26.719 MB.

