
Note: Compatibility modes selected: hs a


Circuit: SKY130 library cell inv_1 A_to_Y

option SCALE: Scale is set to 1e-06 for instance and model parameters
Doing analysis at TEMP = 1.578559 and TNOM = 27.000000

Using KLU as Direct Linear Solver
 Reference value :  1.11268e-07
No. of Data Rows : 68032

  Measurements for Transient Analysis

tphl                =  3.65200e-10 targ=  2.94606e-08 trig=  2.90954e-08
tplh                =  2.56886e-09 targ=  1.11855e-07 trig=  1.09286e-07
i_vdd_avg           =  -1.61143e-06 from=  1.00000e-08 to=  3.30004e-07
power_avg_uw        =  3.08691e+00


Total analysis time (seconds) = 0.305451

Total elapsed time (seconds) = 0.467 

Total DRAM available = 16384.000 MB.
DRAM currently available =  203.391 MB.
Maximum ngspice program size =   27.062 MB.
Current ngspice program size =   27.062 MB.

