
Note: Compatibility modes selected: hs a


Circuit: SKY130 library cell nand3_1 A_to_Y__B=1,C=1

option SCALE: Scale is set to 1e-06 for instance and model parameters
Doing analysis at TEMP = -0.348810 and TNOM = 27.000000

Using KLU as Direct Linear Solver
 Reference value :  3.43210e-08
 Reference value :  1.31855e-07
 Reference value :  2.30461e-07
 Reference value :  3.31485e-07
No. of Data Rows : 68034

  Measurements for Transient Analysis

tphl                =  1.57738e-09 targ=  2.79391e-08 trig=  2.63618e-08
tplh                =  2.28559e-09 targ=  1.03371e-07 trig=  1.01085e-07
i_vdd_avg           =  -9.99285e-07 from=  1.00000e-08 to=  3.30005e-07
power_avg_uw        =  1.66482e+00


Total analysis time (seconds) = 0.883379

Total elapsed time (seconds) = 1.046 

Total DRAM available = 16384.000 MB.
DRAM currently available =  176.766 MB.
Maximum ngspice program size =   25.266 MB.
Current ngspice program size =   25.266 MB.

