
Note: Compatibility modes selected: hs a


Circuit: SKY130 library cell mux2_1 A0_to_X__A1=0,S=0

option SCALE: Scale is set to 1e-06 for instance and model parameters
Doing analysis at TEMP = -6.443885 and TNOM = 27.000000

Using KLU as Direct Linear Solver
 Reference value :  1.46514e-08
 Reference value :  6.59086e-08
 Reference value :  1.16385e-07
 Reference value :  1.71590e-07
 Reference value :  2.23634e-07
 Reference value :  2.75650e-07
 Reference value :  3.28145e-07
No. of Data Rows : 68032

  Measurements for Transient Analysis

tplh                =  1.73404e-09 targ=  2.77196e-08 trig=  2.59855e-08
tphl                =  1.61076e-09 targ=  1.01567e-07 trig=  9.99566e-08
i_vdd_avg           =  -2.26376e-06 from=  1.00000e-08 to=  3.30005e-07
power_avg_uw        =  4.47327e+00


Total analysis time (seconds) = 1.67832

Total elapsed time (seconds) = 1.854 

Total DRAM available = 16384.000 MB.
DRAM currently available =  119.609 MB.
Maximum ngspice program size =   26.094 MB.
Current ngspice program size =   26.094 MB.

