
Note: Compatibility modes selected: hs a


Circuit: SKY130 library cell oai21_4 A1_to_Y__A2=0,B1=1

option SCALE: Scale is set to 1e-06 for instance and model parameters
Doing analysis at TEMP = 48.433026 and TNOM = 27.000000

Using KLU as Direct Linear Solver
 Reference value :  6.44140e-09
 Reference value :  3.43862e-08
 Reference value :  6.08012e-08
 Reference value :  8.97862e-08
 Reference value :  1.18590e-07
 Reference value :  1.45565e-07
 Reference value :  1.73895e-07
 Reference value :  2.01971e-07
 Reference value :  2.30091e-07
 Reference value :  2.58006e-07
 Reference value :  2.85185e-07
 Reference value :  3.14810e-07
No. of Data Rows : 68034

  Measurements for Transient Analysis

tphl                =  1.02384e-09 targ=  2.67032e-08 trig=  2.56794e-08
tplh                =  1.83487e-09 targ=  1.00873e-07 trig=  9.90381e-08
i_vdd_avg           =  -1.72011e-06 from=  1.00000e-08 to=  3.30005e-07
power_avg_uw        =  2.90723e+00


Total analysis time (seconds) = 3.07053

Total elapsed time (seconds) = 3.251 

Total DRAM available = 16384.000 MB.
DRAM currently available =  147.109 MB.
Maximum ngspice program size =   27.031 MB.
Current ngspice program size =   27.031 MB.

