
Note: Compatibility modes selected: hs a


Circuit: SKY130 library cell oai21_1 A1_to_Y__A2=0,B1=1

option SCALE: Scale is set to 1e-06 for instance and model parameters
Doing analysis at TEMP = -2.032879 and TNOM = 27.000000

Using KLU as Direct Linear Solver
 Reference value :  3.38674e-08
 Reference value :  1.30862e-07
 Reference value :  2.30232e-07
 Reference value :  3.26677e-07
No. of Data Rows : 68032

  Measurements for Transient Analysis

tphl                =  5.58994e-10 targ=  2.50690e-08 trig=  2.45100e-08
tplh                =  1.38556e-09 targ=  9.69155e-08 trig=  9.55299e-08
i_vdd_avg           =  -7.42869e-07 from=  1.00000e-08 to=  3.30002e-07
power_avg_uw        =  1.42276e+00


Total analysis time (seconds) = 0.887827

Total elapsed time (seconds) = 1.048 

Total DRAM available = 16384.000 MB.
DRAM currently available =  142.609 MB.
Maximum ngspice program size =   23.906 MB.
Current ngspice program size =   23.906 MB.

