
Note: Compatibility modes selected: hs a


Circuit: SKY130 library cell oai21_4 A1_to_Y__A2=0,B1=1

option SCALE: Scale is set to 1e-06 for instance and model parameters
Doing analysis at TEMP = 44.228486 and TNOM = 27.000000

Using KLU as Direct Linear Solver
 Reference value :  7.42640e-09
 Reference value :  3.59019e-08
 Reference value :  6.32519e-08
 Reference value :  8.93169e-08
 Reference value :  1.18671e-07
 Reference value :  1.46326e-07
 Reference value :  1.73836e-07
 Reference value :  2.03452e-07
 Reference value :  2.28972e-07
 Reference value :  2.55342e-07
 Reference value :  2.81851e-07
 Reference value :  3.09606e-07
 Reference value :  3.37211e-07
No. of Data Rows : 68032

  Measurements for Transient Analysis

tphl                =  -2.31453e-10 targ=  2.96533e-08 trig=  2.98847e-08
tplh                =  1.78613e-09 targ=  1.13440e-07 trig=  1.11654e-07
i_vdd_avg           =  -1.89607e-06 from=  1.00000e-08 to=  3.30001e-07
power_avg_uw        =  3.30909e+00


Total analysis time (seconds) = 3.25009

Total elapsed time (seconds) = 3.422 

Total DRAM available = 16384.000 MB.
DRAM currently available =  121.891 MB.
Maximum ngspice program size =   26.266 MB.
Current ngspice program size =   26.266 MB.

