
Note: Compatibility modes selected: hs a


Circuit: SKY130 library cell xor2_1 A_to_X__B=0

option SCALE: Scale is set to 1e-06 for instance and model parameters
Doing analysis at TEMP = 42.587068 and TNOM = 27.000000

Using KLU as Direct Linear Solver
 Reference value :  2.56375e-08
 Reference value :  9.50986e-08
 Reference value :  1.59890e-07
 Reference value :  2.23324e-07
 Reference value :  2.90550e-07
No. of Data Rows : 68032

  Measurements for Transient Analysis

tplh                =  1.48927e-09 targ=  2.90848e-08 trig=  2.75955e-08
tphl                =  1.31606e-09 targ=  1.06103e-07 trig=  1.04787e-07
i_vdd_avg           =  -1.79270e-06 from=  1.00000e-08 to=  3.30005e-07
power_avg_uw        =  2.99273e+00


Total analysis time (seconds) = 1.28887

Total elapsed time (seconds) = 1.442 

Total DRAM available = 16384.000 MB.
DRAM currently available =  128.406 MB.
Maximum ngspice program size =   25.547 MB.
Current ngspice program size =   25.547 MB.

