
Note: Compatibility modes selected: hs a


Circuit: SKY130 library cell nand2_1 A_to_Y__B=1

option SCALE: Scale is set to 1e-06 for instance and model parameters
Doing analysis at TEMP = -25.111650 and TNOM = 27.000000

Using KLU as Direct Linear Solver
 Reference value :  6.34415e-08
 Reference value :  2.24887e-07
No. of Data Rows : 68032

  Measurements for Transient Analysis

tphl                =  -2.93575e-10 targ=  2.77809e-08 trig=  2.80745e-08
tplh                =  9.11076e-10 targ=  1.07135e-07 trig=  1.06224e-07
i_vdd_avg           =  -1.15167e-07 from=  1.00000e-08 to=  3.30001e-07
power_avg_uw        =  2.19737e-01


Total analysis time (seconds) = 0.548331

Total elapsed time (seconds) = 0.698 

Total DRAM available = 16384.000 MB.
DRAM currently available =   91.594 MB.
Maximum ngspice program size =   24.609 MB.
Current ngspice program size =   24.609 MB.

