
Note: Compatibility modes selected: hs a


Circuit: SKY130 library cell oai21_4 A1_to_Y__A2=0,B1=1

option SCALE: Scale is set to 1e-06 for instance and model parameters
Doing analysis at TEMP = 40.065883 and TNOM = 27.000000

Using KLU as Direct Linear Solver
 Reference value :  8.75140e-09
 Reference value :  3.60000e-08
 Reference value :  6.23650e-08
 Reference value :  8.97650e-08
 Reference value :  1.16688e-07
 Reference value :  1.45093e-07
 Reference value :  1.73183e-07
 Reference value :  2.01045e-07
 Reference value :  2.28770e-07
 Reference value :  2.57583e-07
 Reference value :  2.85903e-07
 Reference value :  3.12733e-07
 Reference value :  3.39543e-07
No. of Data Rows : 68034

  Measurements for Transient Analysis

tphl                =  8.07435e-11 targ=  2.41895e-08 trig=  2.41088e-08
tplh                =  1.81254e-10 targ=  9.45076e-08 trig=  9.43263e-08
i_vdd_avg           =  -6.70974e-07 from=  1.00000e-08 to=  3.30003e-07
power_avg_uw        =  1.25386e+00


Total analysis time (seconds) = 3.29807

Total elapsed time (seconds) = 3.473 

Total DRAM available = 16384.000 MB.
DRAM currently available =  121.891 MB.
Maximum ngspice program size =   23.906 MB.
Current ngspice program size =   23.906 MB.

