
Note: Compatibility modes selected: hs a


Circuit: SKY130 library cell oai21_1 A1_to_Y__A2=0,B1=1

option SCALE: Scale is set to 1e-06 for instance and model parameters
Doing analysis at TEMP = 12.177096 and TNOM = 27.000000

Using KLU as Direct Linear Solver
 Reference value :  2.41325e-08
 Reference value :  1.23810e-07
 Reference value :  2.26854e-07
 Reference value :  3.26155e-07
No. of Data Rows : 68030

  Measurements for Transient Analysis

tphl                =  1.66196e-09 targ=  2.99077e-08 trig=  2.82457e-08
tplh                =  3.84950e-09 targ=  1.10587e-07 trig=  1.06737e-07
i_vdd_avg           =  -1.51167e-06 from=  1.00000e-08 to=  3.30000e-07
power_avg_uw        =  2.74707e+00


Total analysis time (seconds) = 0.865953

Total elapsed time (seconds) = 1.036 

Total DRAM available = 16384.000 MB.
DRAM currently available =  120.938 MB.
Maximum ngspice program size =   26.734 MB.
Current ngspice program size =   26.734 MB.

