
Note: Compatibility modes selected: hs a


Circuit: SKY130 library cell nand2_4 A_to_Y__B=1

option SCALE: Scale is set to 1e-06 for instance and model parameters
Doing analysis at TEMP = -7.657183 and TNOM = 27.000000

Using KLU as Direct Linear Solver
 Reference value :  1.68664e-08
 Reference value :  5.92019e-08
 Reference value :  1.05161e-07
 Reference value :  1.51506e-07
 Reference value :  1.95827e-07
 Reference value :  2.45922e-07
 Reference value :  2.91586e-07
 Reference value :  3.38986e-07
No. of Data Rows : 68032

  Measurements for Transient Analysis

tphl                =  1.00792e-09 targ=  2.74851e-08 trig=  2.64772e-08
tplh                =  1.94267e-09 targ=  1.03374e-07 trig=  1.01432e-07
i_vdd_avg           =  -2.04972e-06 from=  1.00000e-08 to=  3.30001e-07
power_avg_uw        =  3.36618e+00


Total analysis time (seconds) = 1.85925

Total elapsed time (seconds) = 2.025 

Total DRAM available = 16384.000 MB.
DRAM currently available =   95.531 MB.
Maximum ngspice program size =   25.625 MB.
Current ngspice program size =   25.625 MB.

