
Note: Compatibility modes selected: hs a


Circuit: SKY130 library cell xor2_1 A_to_X__B=0

option SCALE: Scale is set to 1e-06 for instance and model parameters
Doing analysis at TEMP = -1.887690 and TNOM = 27.000000

Using KLU as Direct Linear Solver
 Reference value :  1.92364e-08
 Reference value :  8.49343e-08
 Reference value :  1.49171e-07
 Reference value :  2.13374e-07
 Reference value :  2.82986e-07
No. of Data Rows : 68030

  Measurements for Transient Analysis

tplh                =  3.65924e-09 targ=  2.81351e-08 trig=  2.44759e-08
tphl                =  9.76476e-10 targ=  9.64042e-08 trig=  9.54277e-08
i_vdd_avg           =  -1.43334e-06 from=  1.00000e-08 to=  3.30001e-07
power_avg_uw        =  2.41223e+00


Total analysis time (seconds) = 1.32138

Total elapsed time (seconds) = 1.481 

Total DRAM available = 16384.000 MB.
DRAM currently available =  166.766 MB.
Maximum ngspice program size =   25.891 MB.
Current ngspice program size =   25.891 MB.

