
Note: Compatibility modes selected: hs a


Circuit: SKY130 library cell mux2_1 A0_to_X__A1=0,S=0

option SCALE: Scale is set to 1e-06 for instance and model parameters
Doing analysis at TEMP = 65.148062 and TNOM = 27.000000

Using KLU as Direct Linear Solver
 Reference value :  1.35164e-08
 Reference value :  5.81734e-08
 Reference value :  1.08774e-07
 Reference value :  1.61714e-07
 Reference value :  2.12618e-07
 Reference value :  2.65103e-07
 Reference value :  3.17589e-07
No. of Data Rows : 68032

  Measurements for Transient Analysis

tplh                =  6.80213e-10 targ=  2.77332e-08 trig=  2.70530e-08
tphl                =  1.33670e-09 targ=  1.04496e-07 trig=  1.03159e-07
i_vdd_avg           =  -1.29755e-06 from=  1.00000e-08 to=  3.30004e-07
power_avg_uw        =  2.41466e+00


Total analysis time (seconds) = 1.75099

Total elapsed time (seconds) = 1.946 

Total DRAM available = 16384.000 MB.
DRAM currently available =  163.234 MB.
Maximum ngspice program size =   26.562 MB.
Current ngspice program size =   26.562 MB.

