
Note: Compatibility modes selected: hs a


Circuit: SKY130 library cell aoi21_4 A1_to_Y__A2=1,B1=0

option SCALE: Scale is set to 1e-06 for instance and model parameters
Doing analysis at TEMP = 90.816043 and TNOM = 27.000000

Using KLU as Direct Linear Solver
 Reference value :  7.87640e-09
 Reference value :  3.61415e-08
 Reference value :  6.43115e-08
 Reference value :  9.37115e-08
 Reference value :  1.21186e-07
 Reference value :  1.49756e-07
 Reference value :  1.78961e-07
 Reference value :  2.07432e-07
 Reference value :  2.36157e-07
 Reference value :  2.62562e-07
 Reference value :  2.89346e-07
 Reference value :  3.15816e-07
No. of Data Rows : 68032

  Measurements for Transient Analysis

tphl                =  1.74141e-10 targ=  2.99187e-08 trig=  2.97445e-08
tplh                =  1.86952e-09 targ=  1.13103e-07 trig=  1.11234e-07
i_vdd_avg           =  -3.32529e-06 from=  1.00000e-08 to=  3.30001e-07
power_avg_uw        =  5.84650e+00


Total analysis time (seconds) = 3.09127

Total elapsed time (seconds) = 3.276 

Total DRAM available = 16384.000 MB.
DRAM currently available =   99.500 MB.
Maximum ngspice program size =   26.828 MB.
Current ngspice program size =   26.828 MB.

