
Note: Compatibility modes selected: hs a


Circuit: SKY130 library cell inv_1 A_to_Y

option SCALE: Scale is set to 1e-06 for instance and model parameters
Doing analysis at TEMP = -37.525890 and TNOM = 27.000000

Using KLU as Direct Linear Solver
 Reference value :  7.89633e-08
No. of Data Rows : 68032

  Measurements for Transient Analysis

tphl                =  1.96991e-09 targ=  3.12853e-08 trig=  2.93154e-08
tplh                =  4.60636e-09 targ=  1.14553e-07 trig=  1.09946e-07
i_vdd_avg           =  -1.81022e-06 from=  1.00000e-08 to=  3.30004e-07
power_avg_uw        =  3.17006e+00


Total analysis time (seconds) = 0.345642

Total elapsed time (seconds) = 0.502 

Total DRAM available = 16384.000 MB.
DRAM currently available =  199.781 MB.
Maximum ngspice program size =   25.906 MB.
Current ngspice program size =   25.906 MB.

