
Note: Compatibility modes selected: hs a


Circuit: SKY130 library cell inv_1 A_to_Y

option SCALE: Scale is set to 1e-06 for instance and model parameters
Doing analysis at TEMP = 72.207834 and TNOM = 27.000000

Using KLU as Direct Linear Solver
 Reference value :  1.06888e-07
No. of Data Rows : 68032

  Measurements for Transient Analysis

tphl                =  3.02898e-09 targ=  3.14594e-08 trig=  2.84304e-08
tplh                =  4.53957e-09 targ=  1.11831e-07 trig=  1.07291e-07
i_vdd_avg           =  -1.58965e-06 from=  1.00000e-08 to=  3.30004e-07
power_avg_uw        =  2.58237e+00


Total analysis time (seconds) = 0.333206

Total elapsed time (seconds) = 0.501 

Total DRAM available = 16384.000 MB.
DRAM currently available =   75.031 MB.
Maximum ngspice program size =   24.188 MB.
Current ngspice program size =   24.188 MB.

