
Note: Compatibility modes selected: hs a


Circuit: SKY130 library cell mux2_4 A0_to_X__A1=0,S=0

option SCALE: Scale is set to 1e-06 for instance and model parameters
Doing analysis at TEMP = 39.329441 and TNOM = 27.000000

Using KLU as Direct Linear Solver
 Reference value :  9.88140e-09
 Reference value :  4.68491e-08
 Reference value :  8.35391e-08
 Reference value :  1.17881e-07
 Reference value :  1.52811e-07
 Reference value :  1.88138e-07
 Reference value :  2.24279e-07
 Reference value :  2.60899e-07
 Reference value :  2.94876e-07
 Reference value :  3.31201e-07
No. of Data Rows : 68030

  Measurements for Transient Analysis

tplh                =  1.37362e-09 targ=  2.78894e-08 trig=  2.65158e-08
tphl                =  1.92226e-09 targ=  1.03470e-07 trig=  1.01547e-07
i_vdd_avg           =  -1.46819e-06 from=  1.00000e-08 to=  3.30001e-07
power_avg_uw        =  2.40585e+00


Total analysis time (seconds) = 2.4352

Total elapsed time (seconds) = 2.614 

Total DRAM available = 16384.000 MB.
DRAM currently available =  172.859 MB.
Maximum ngspice program size =   26.547 MB.
Current ngspice program size =   26.547 MB.

