
Note: Compatibility modes selected: hs a


Circuit: SKY130 library cell nand3_4 A_to_Y__B=1,C=1

option SCALE: Scale is set to 1e-06 for instance and model parameters
Doing analysis at TEMP = 105.999960 and TNOM = 27.000000

Using KLU as Direct Linear Solver
 Reference value :  7.48140e-09
 Reference value :  3.45561e-08
 Reference value :  6.21261e-08
 Reference value :  8.99561e-08
 Reference value :  1.15860e-07
 Reference value :  1.42760e-07
 Reference value :  1.69600e-07
 Reference value :  1.97781e-07
 Reference value :  2.25131e-07
 Reference value :  2.51556e-07
 Reference value :  2.80000e-07
 Reference value :  3.07665e-07
 Reference value :  3.34480e-07
No. of Data Rows : 68034

  Measurements for Transient Analysis

tphl                =  3.41349e-10 targ=  2.74256e-08 trig=  2.70843e-08
tplh                =  7.43005e-10 targ=  1.03996e-07 trig=  1.03253e-07
i_vdd_avg           =  -1.64959e-06 from=  1.00000e-08 to=  3.30005e-07
power_avg_uw        =  3.21841e+00


Total analysis time (seconds) = 3.21102

Total elapsed time (seconds) = 3.393 

Total DRAM available = 16384.000 MB.
DRAM currently available =  176.062 MB.
Maximum ngspice program size =   28.594 MB.
Current ngspice program size =   28.594 MB.

