
Note: Compatibility modes selected: hs a


Circuit: SKY130 library cell mux2_1 A0_to_X__A1=0,S=0

option SCALE: Scale is set to 1e-06 for instance and model parameters
Doing analysis at TEMP = 74.887454 and TNOM = 27.000000

Using KLU as Direct Linear Solver
 Reference value :  1.48414e-08
 Reference value :  6.92125e-08
 Reference value :  1.24233e-07
 Reference value :  1.78013e-07
 Reference value :  2.25048e-07
 Reference value :  2.76453e-07
 Reference value :  3.26108e-07
No. of Data Rows : 68032

  Measurements for Transient Analysis

tplh                =  1.83148e-09 targ=  3.04540e-08 trig=  2.86225e-08
tphl                =  2.25439e-09 targ=  1.10122e-07 trig=  1.07868e-07
i_vdd_avg           =  -2.10669e-06 from=  1.00000e-08 to=  3.30003e-07
power_avg_uw        =  3.42167e+00


Total analysis time (seconds) = 1.72372

Total elapsed time (seconds) = 1.899 

Total DRAM available = 16384.000 MB.
DRAM currently available =  137.578 MB.
Maximum ngspice program size =   26.328 MB.
Current ngspice program size =   26.328 MB.

