
Note: Compatibility modes selected: hs a


Circuit: SKY130 library cell nand2_4 A_to_Y__B=1

option SCALE: Scale is set to 1e-06 for instance and model parameters
Doing analysis at TEMP = 30.575730 and TNOM = 27.000000

Using KLU as Direct Linear Solver
 Reference value :  1.80764e-08
 Reference value :  6.48469e-08
 Reference value :  1.09937e-07
 Reference value :  1.54176e-07
 Reference value :  1.97642e-07
 Reference value :  2.43172e-07
 Reference value :  2.90641e-07
 Reference value :  3.34521e-07
No. of Data Rows : 68032

  Measurements for Transient Analysis

tphl                =  1.36100e-12 targ=  2.83811e-08 trig=  2.83797e-08
tplh                =  1.44051e-09 targ=  1.08580e-07 trig=  1.07139e-07
i_vdd_avg           =  -4.12540e-06 from=  1.00000e-08 to=  3.30001e-07
power_avg_uw        =  8.16444e+00


Total analysis time (seconds) = 1.90771

Total elapsed time (seconds) = 2.048 

Total DRAM available = 16384.000 MB.
DRAM currently available =  145.406 MB.
Maximum ngspice program size =   25.531 MB.
Current ngspice program size =   25.531 MB.

