
Note: Compatibility modes selected: hs a


Circuit: SKY130 library cell xor2_1 A_to_X__B=0

option SCALE: Scale is set to 1e-06 for instance and model parameters
Doing analysis at TEMP = 80.726921 and TNOM = 27.000000

Using KLU as Direct Linear Solver
 Reference value :  2.50575e-08
 Reference value :  8.61544e-08
 Reference value :  1.55476e-07
 Reference value :  2.25464e-07
 Reference value :  2.93931e-07
No. of Data Rows : 68030

  Measurements for Transient Analysis

tplh                =  1.10387e-09 targ=  2.60723e-08 trig=  2.49685e-08
tphl                =  6.02767e-10 targ=  9.75082e-08 trig=  9.69054e-08
i_vdd_avg           =  -1.30238e-06 from=  1.00000e-08 to=  3.30001e-07
power_avg_uw        =  2.25427e+00


Total analysis time (seconds) = 1.29768

Total elapsed time (seconds) = 1.455 

Total DRAM available = 16384.000 MB.
DRAM currently available =  118.609 MB.
Maximum ngspice program size =   27.359 MB.
Current ngspice program size =   27.359 MB.

