
Note: Compatibility modes selected: hs a


Circuit: SKY130 library cell xor2_1 A_to_X__B=0

option SCALE: Scale is set to 1e-06 for instance and model parameters
Doing analysis at TEMP = 93.819896 and TNOM = 27.000000

Using KLU as Direct Linear Solver
 Reference value :  2.41175e-08
 Reference value :  9.21298e-08
 Reference value :  1.56287e-07
 Reference value :  2.23970e-07
 Reference value :  2.89487e-07
No. of Data Rows : 68030

  Measurements for Transient Analysis

tplh                =  2.76974e-09 targ=  3.06034e-08 trig=  2.78337e-08
tphl                =  1.48480e-09 targ=  1.06986e-07 trig=  1.05501e-07
i_vdd_avg           =  -2.32616e-06 from=  1.00000e-08 to=  3.30002e-07
power_avg_uw        =  4.57846e+00


Total analysis time (seconds) = 1.2727

Total elapsed time (seconds) = 1.438 

Total DRAM available = 16384.000 MB.
DRAM currently available =  118.406 MB.
Maximum ngspice program size =   27.656 MB.
Current ngspice program size =   27.656 MB.

