
Note: Compatibility modes selected: hs a


Circuit: SKY130 library cell mux2_4 A0_to_X__A1=0,S=0

option SCALE: Scale is set to 1e-06 for instance and model parameters
Doing analysis at TEMP = 68.704581 and TNOM = 27.000000

Using KLU as Direct Linear Solver
 Reference value :  1.06114e-08
 Reference value :  4.28613e-08
 Reference value :  7.74063e-08
 Reference value :  1.13111e-07
 Reference value :  1.46975e-07
 Reference value :  1.83395e-07
 Reference value :  2.19511e-07
 Reference value :  2.54576e-07
 Reference value :  2.89945e-07
 Reference value :  3.26725e-07
No. of Data Rows : 68032

  Measurements for Transient Analysis

tplh                =  3.28026e-10 targ=  3.02024e-08 trig=  2.98744e-08
tphl                =  1.67179e-09 targ=  1.13295e-07 trig=  1.11623e-07
i_vdd_avg           =  -1.51830e-06 from=  1.00000e-08 to=  3.30000e-07
power_avg_uw        =  2.78725e+00


Total analysis time (seconds) = 2.46597

Total elapsed time (seconds) = 2.655 

Total DRAM available = 16384.000 MB.
DRAM currently available =  185.219 MB.
Maximum ngspice program size =   26.531 MB.
Current ngspice program size =   26.531 MB.

