
Note: Compatibility modes selected: hs a


Circuit: SKY130 library cell aoi21_4 A1_to_Y__A2=1,B1=0

option SCALE: Scale is set to 1e-06 for instance and model parameters
Doing analysis at TEMP = 55.115797 and TNOM = 27.000000

Using KLU as Direct Linear Solver
 Reference value :  7.24140e-09
 Reference value :  3.66160e-08
 Reference value :  6.56560e-08
 Reference value :  9.33510e-08
 Reference value :  1.22009e-07
 Reference value :  1.50389e-07
 Reference value :  1.79114e-07
 Reference value :  2.06086e-07
 Reference value :  2.33186e-07
 Reference value :  2.61031e-07
 Reference value :  2.88589e-07
 Reference value :  3.15659e-07
No. of Data Rows : 68034

  Measurements for Transient Analysis

tphl                =  1.06107e-09 targ=  2.98203e-08 trig=  2.87592e-08
tplh                =  2.16531e-09 targ=  1.10443e-07 trig=  1.08278e-07
i_vdd_avg           =  -1.95100e-06 from=  1.00000e-08 to=  3.30004e-07
power_avg_uw        =  3.85157e+00


Total analysis time (seconds) = 3.09009

Total elapsed time (seconds) = 3.259 

Total DRAM available = 16384.000 MB.
DRAM currently available =  115.594 MB.
Maximum ngspice program size =   27.469 MB.
Current ngspice program size =   27.469 MB.

