
Note: Compatibility modes selected: hs a


Circuit: SKY130 library cell nor2_1 A_to_Y__B=0

option SCALE: Scale is set to 1e-06 for instance and model parameters
Doing analysis at TEMP = 42.766851 and TNOM = 27.000000

Using KLU as Direct Linear Solver
 Reference value :  4.98346e-08
 Reference value :  1.99255e-07
No. of Data Rows : 68030

  Measurements for Transient Analysis

tphl                =  1.10724e-09 targ=  2.78283e-08 trig=  2.67210e-08
tplh                =  2.23285e-09 targ=  1.04396e-07 trig=  1.02163e-07
i_vdd_avg           =  -4.02942e-07 from=  1.00000e-08 to=  3.30002e-07
power_avg_uw        =  6.90161e-01


Total analysis time (seconds) = 0.59482

Total elapsed time (seconds) = 0.740 

Total DRAM available = 16384.000 MB.
DRAM currently available =   98.688 MB.
Maximum ngspice program size =   26.094 MB.
Current ngspice program size =   26.094 MB.

