
Note: Compatibility modes selected: hs a


Circuit: SKY130 library cell xor2_1 A_to_X__B=0

option SCALE: Scale is set to 1e-06 for instance and model parameters
Doing analysis at TEMP = 65.593070 and TNOM = 27.000000

Using KLU as Direct Linear Solver
 Reference value :  1.79914e-08
 Reference value :  8.45232e-08
 Reference value :  1.51564e-07
 Reference value :  2.20578e-07
 Reference value :  2.86694e-07
No. of Data Rows : 68032

  Measurements for Transient Analysis

tplh                =  1.38039e-09 targ=  2.59657e-08 trig=  2.45853e-08
tphl                =  5.69975e-10 targ=  9.63260e-08 trig=  9.57560e-08
i_vdd_avg           =  -1.40017e-06 from=  1.00000e-08 to=  3.30004e-07
power_avg_uw        =  2.37479e+00


Total analysis time (seconds) = 1.28918

Total elapsed time (seconds) = 1.455 

Total DRAM available = 16384.000 MB.
DRAM currently available =  128.297 MB.
Maximum ngspice program size =   28.031 MB.
Current ngspice program size =   28.031 MB.

