
Note: Compatibility modes selected: hs a


Circuit: SKY130 library cell nor2_1 A_to_Y__B=0

option SCALE: Scale is set to 1e-06 for instance and model parameters
Doing analysis at TEMP = 101.803010 and TNOM = 27.000000

Using KLU as Direct Linear Solver
 Reference value :  5.99412e-08
 Reference value :  2.05966e-07
No. of Data Rows : 68034

  Measurements for Transient Analysis

tphl                =  6.64738e-10 targ=  2.63541e-08 trig=  2.56894e-08
tplh                =  1.18349e-09 targ=  1.00252e-07 trig=  9.90681e-08
i_vdd_avg           =  -2.78365e-07 from=  1.00000e-08 to=  3.30005e-07
power_avg_uw        =  4.87905e-01


Total analysis time (seconds) = 0.555356

Total elapsed time (seconds) = 0.700 

Total DRAM available = 16384.000 MB.
DRAM currently available =  117.547 MB.
Maximum ngspice program size =   24.594 MB.
Current ngspice program size =   24.594 MB.

