
Note: Compatibility modes selected: hs a


Circuit: SKY130 library cell mux2_1 A0_to_X__A1=0,S=0

option SCALE: Scale is set to 1e-06 for instance and model parameters
Doing analysis at TEMP = 70.625143 and TNOM = 27.000000

Using KLU as Direct Linear Solver
 Reference value :  1.67014e-08
 Reference value :  6.63999e-08
 Reference value :  1.18792e-07
 Reference value :  1.71052e-07
 Reference value :  2.25000e-07
 Reference value :  2.76517e-07
 Reference value :  3.32697e-07
No. of Data Rows : 68030

  Measurements for Transient Analysis

tplh                =  1.01593e-09 targ=  2.64821e-08 trig=  2.54662e-08
tphl                =  1.04515e-09 targ=  9.94438e-08 trig=  9.83986e-08
i_vdd_avg           =  -2.32204e-06 from=  1.00000e-08 to=  3.30002e-07
power_avg_uw        =  4.15084e+00


Total analysis time (seconds) = 1.67912

Total elapsed time (seconds) = 1.835 

Total DRAM available = 16384.000 MB.
DRAM currently available =   96.203 MB.
Maximum ngspice program size =   23.953 MB.
Current ngspice program size =   23.953 MB.

