
Note: Compatibility modes selected: hs a


Circuit: SKY130 library cell nor2_1 A_to_Y__B=0

option SCALE: Scale is set to 1e-06 for instance and model parameters
Doing analysis at TEMP = 121.562070 and TNOM = 27.000000

Using KLU as Direct Linear Solver
 Reference value :  5.40994e-08
 Reference value :  2.14929e-07
No. of Data Rows : 68030

  Measurements for Transient Analysis

tphl                =  2.25768e-09 targ=  3.06161e-08 trig=  2.83584e-08
tplh                =  4.11311e-09 targ=  1.11188e-07 trig=  1.07075e-07
i_vdd_avg           =  -2.04083e-06 from=  1.00000e-08 to=  3.30001e-07
power_avg_uw        =  3.97655e+00


Total analysis time (seconds) = 0.548689

Total elapsed time (seconds) = 0.709 

Total DRAM available = 16384.000 MB.
DRAM currently available =  131.141 MB.
Maximum ngspice program size =   26.906 MB.
Current ngspice program size =   26.906 MB.

