
Note: Compatibility modes selected: hs a


Circuit: SKY130 library cell nand3_1 A_to_Y__B=1,C=1

option SCALE: Scale is set to 1e-06 for instance and model parameters
Doing analysis at TEMP = -6.342185 and TNOM = 27.000000

Using KLU as Direct Linear Solver
 Reference value :  3.02225e-08
 Reference value :  1.18336e-07
 Reference value :  2.19544e-07
 Reference value :  3.15791e-07
No. of Data Rows : 68030

  Measurements for Transient Analysis

tphl                =  2.67553e-09 targ=  3.02090e-08 trig=  2.75335e-08
tplh                =  3.74524e-09 targ=  1.08346e-07 trig=  1.04600e-07
i_vdd_avg           =  -2.12034e-06 from=  1.00000e-08 to=  3.30001e-07
power_avg_uw        =  3.63149e+00


Total analysis time (seconds) = 0.92988

Total elapsed time (seconds) = 1.112 

Total DRAM available = 16384.000 MB.
DRAM currently available =  259.359 MB.
Maximum ngspice program size =   26.250 MB.
Current ngspice program size =   26.250 MB.

