
Note: Compatibility modes selected: hs a


Circuit: SKY130 library cell nand3_1 A_to_Y__B=1,C=1

option SCALE: Scale is set to 1e-06 for instance and model parameters
Doing analysis at TEMP = 69.973730 and TNOM = 27.000000

Using KLU as Direct Linear Solver
 Reference value :  3.29717e-08
 Reference value :  1.22026e-07
 Reference value :  2.27867e-07
 Reference value :  3.25441e-07
No. of Data Rows : 68032

  Measurements for Transient Analysis

tphl                =  1.15457e-09 targ=  2.56692e-08 trig=  2.45146e-08
tplh                =  1.17038e-09 targ=  9.67142e-08 trig=  9.55438e-08
i_vdd_avg           =  -1.39118e-06 from=  1.00000e-08 to=  3.30001e-07
power_avg_uw        =  2.39413e+00


Total analysis time (seconds) = 0.892842

Total elapsed time (seconds) = 1.051 

Total DRAM available = 16384.000 MB.
DRAM currently available =  179.109 MB.
Maximum ngspice program size =   26.344 MB.
Current ngspice program size =   26.344 MB.

