Note: Starting dynamic gmin stepping
Note: Dynamic gmin stepping completed

Note: Compatibility modes selected: hs a


Circuit: SKY130 library cell mux2_1 A0_to_X__A1=0,S=0

option SCALE: Scale is set to 1e-06 for instance and model parameters
Doing analysis at TEMP = -21.552946 and TNOM = 27.000000

Using KLU as Direct Linear Solver
 Reference value :  1.85314e-08
 Reference value :  6.70013e-08
 Reference value :  1.17040e-07
 Reference value :  1.65335e-07
 Reference value :  2.11506e-07
 Reference value :  2.60891e-07
 Reference value :  3.07560e-07
No. of Data Rows : 68032

  Measurements for Transient Analysis

tplh                =  4.46329e-10 targ=  2.71657e-08 trig=  2.67194e-08
tphl                =  1.13694e-09 targ=  1.03295e-07 trig=  1.02158e-07
i_vdd_avg           =  -1.53720e-06 from=  1.00000e-08 to=  3.30000e-07
power_avg_uw        =  2.90326e+00


Total analysis time (seconds) = 1.95334

Total elapsed time (seconds) = 2.108 

Total DRAM available = 16384.000 MB.
DRAM currently available =  110.000 MB.
Maximum ngspice program size =   25.766 MB.
Current ngspice program size =   25.766 MB.

