
Note: Compatibility modes selected: hs a


Circuit: SKY130 library cell mux2_4 A0_to_X__A1=0,S=0

option SCALE: Scale is set to 1e-06 for instance and model parameters
Doing analysis at TEMP = 27.157564 and TNOM = 27.000000

Using KLU as Direct Linear Solver
 Reference value :  1.07914e-08
 Reference value :  4.80269e-08
 Reference value :  8.42069e-08
 Reference value :  1.22376e-07
 Reference value :  1.59006e-07
 Reference value :  1.94827e-07
 Reference value :  2.29017e-07
 Reference value :  2.65317e-07
 Reference value :  2.97991e-07
 Reference value :  3.34361e-07
No. of Data Rows : 68032

  Measurements for Transient Analysis

tplh                =  -2.40871e-10 targ=  2.80688e-08 trig=  2.83097e-08
tphl                =  1.20262e-09 targ=  1.08132e-07 trig=  1.06929e-07
i_vdd_avg           =  -6.56511e-07 from=  1.00000e-08 to=  3.30001e-07
power_avg_uw        =  1.17811e+00


Total analysis time (seconds) = 2.45325

Total elapsed time (seconds) = 2.621 

Total DRAM available = 16384.000 MB.
DRAM currently available =  145.984 MB.
Maximum ngspice program size =   27.969 MB.
Current ngspice program size =   27.969 MB.

