
Note: Compatibility modes selected: hs a


Circuit: SKY130 library cell nand2_1 A_to_Y__B=1

option SCALE: Scale is set to 1e-06 for instance and model parameters
Doing analysis at TEMP = 73.493731 and TNOM = 27.000000

Using KLU as Direct Linear Solver
 Reference value :  5.81908e-08
 Reference value :  2.15241e-07
No. of Data Rows : 68034

  Measurements for Transient Analysis

tphl                =  1.80360e-09 targ=  3.01628e-08 trig=  2.83592e-08
tplh                =  2.85514e-09 targ=  1.09933e-07 trig=  1.07077e-07
i_vdd_avg           =  -2.10922e-06 from=  1.00000e-08 to=  3.30004e-07
power_avg_uw        =  4.13383e+00


Total analysis time (seconds) = 0.564935

Total elapsed time (seconds) = 0.705 

Total DRAM available = 16384.000 MB.
DRAM currently available =  150.172 MB.
Maximum ngspice program size =   27.359 MB.
Current ngspice program size =   27.359 MB.

