
Note: Compatibility modes selected: hs a


Circuit: SKY130 library cell nand3_1 A_to_Y__B=1,C=1

option SCALE: Scale is set to 1e-06 for instance and model parameters
Doing analysis at TEMP = 57.653325 and TNOM = 27.000000

Using KLU as Direct Linear Solver
 Reference value :  3.69296e-08
 Reference value :  1.29322e-07
 Reference value :  2.26890e-07
 Reference value :  3.20792e-07
No. of Data Rows : 68030

  Measurements for Transient Analysis

tphl                =  1.83047e-09 targ=  2.71015e-08 trig=  2.52710e-08
tplh                =  1.80769e-09 targ=  9.96208e-08 trig=  9.78131e-08
i_vdd_avg           =  -1.69793e-06 from=  1.00000e-08 to=  3.30002e-07
power_avg_uw        =  3.28837e+00


Total analysis time (seconds) = 0.922218

Total elapsed time (seconds) = 1.075 

Total DRAM available = 16384.000 MB.
DRAM currently available =  139.750 MB.
Maximum ngspice program size =   27.797 MB.
Current ngspice program size =   27.797 MB.

