
Note: Compatibility modes selected: hs a


Circuit: SKY130 library cell aoi21_1 A1_to_Y__A2=1,B1=0

option SCALE: Scale is set to 1e-06 for instance and model parameters
Doing analysis at TEMP = -37.014591 and TNOM = 27.000000

Using KLU as Direct Linear Solver
 Reference value :  3.57888e-08
 Reference value :  1.32350e-07
 Reference value :  2.37644e-07
 Reference value :  3.36565e-07
No. of Data Rows : 68030

  Measurements for Transient Analysis

tphl                =  9.29843e-10 targ=  2.49805e-08 trig=  2.40506e-08
tplh                =  3.53607e-09 targ=  9.76880e-08 trig=  9.41519e-08
i_vdd_avg           =  -2.14896e-06 from=  1.00000e-08 to=  3.30000e-07
power_avg_uw        =  4.07864e+00


Total analysis time (seconds) = 0.872206

Total elapsed time (seconds) = 1.031 

Total DRAM available = 16384.000 MB.
DRAM currently available =  147.109 MB.
Maximum ngspice program size =   24.578 MB.
Current ngspice program size =   24.578 MB.

