
Note: Compatibility modes selected: hs a


Circuit: SKY130 library cell nand2_4 A_to_Y__B=1

option SCALE: Scale is set to 1e-06 for instance and model parameters
Doing analysis at TEMP = 84.934199 and TNOM = 27.000000

Using KLU as Direct Linear Solver
 Reference value :  1.83614e-08
 Reference value :  6.06117e-08
 Reference value :  1.09571e-07
 Reference value :  1.54056e-07
 Reference value :  1.99267e-07
 Reference value :  2.42807e-07
 Reference value :  2.89201e-07
 Reference value :  3.35906e-07
No. of Data Rows : 68032

  Measurements for Transient Analysis

tphl                =  1.28997e-10 targ=  2.43736e-08 trig=  2.42446e-08
tplh                =  1.84550e-10 targ=  9.49184e-08 trig=  9.47339e-08
i_vdd_avg           =  -4.71524e-07 from=  1.00000e-08 to=  3.30001e-07
power_avg_uw        =  8.59125e-01


Total analysis time (seconds) = 1.89066

Total elapsed time (seconds) = 2.039 

Total DRAM available = 16384.000 MB.
DRAM currently available =  126.109 MB.
Maximum ngspice program size =   27.812 MB.
Current ngspice program size =   27.812 MB.

