
Note: Compatibility modes selected: hs a


Circuit: SKY130 library cell nand3_1 A_to_Y__B=1,C=1

option SCALE: Scale is set to 1e-06 for instance and model parameters
Doing analysis at TEMP = 116.700870 and TNOM = 27.000000

Using KLU as Direct Linear Solver
 Reference value :  3.25997e-08
 Reference value :  1.26342e-07
 Reference value :  2.27380e-07
 Reference value :  3.27137e-07
No. of Data Rows : 68030

  Measurements for Transient Analysis

tphl                =  1.66519e-09 targ=  2.77263e-08 trig=  2.60611e-08
tplh                =  1.63136e-09 targ=  1.01815e-07 trig=  1.00183e-07
i_vdd_avg           =  -6.30702e-07 from=  1.00000e-08 to=  3.30002e-07
power_avg_uw        =  1.09276e+00


Total analysis time (seconds) = 0.888431

Total elapsed time (seconds) = 1.058 

Total DRAM available = 16384.000 MB.
DRAM currently available =  157.109 MB.
Maximum ngspice program size =   25.766 MB.
Current ngspice program size =   25.766 MB.

