
Note: Compatibility modes selected: hs a


Circuit: SKY130 library cell xor2_1 A_to_X__B=0

option SCALE: Scale is set to 1e-06 for instance and model parameters
Doing analysis at TEMP = 107.692090 and TNOM = 27.000000

Using KLU as Direct Linear Solver
 Reference value :  2.70025e-08
 Reference value :  9.58684e-08
 Reference value :  1.55149e-07
 Reference value :  2.23998e-07
 Reference value :  2.89999e-07
No. of Data Rows : 68032

  Measurements for Transient Analysis

tplh                =  1.68716e-09 targ=  3.02301e-08 trig=  2.85430e-08
tphl                =  1.29049e-09 targ=  1.08919e-07 trig=  1.07629e-07
i_vdd_avg           =  -1.41740e-06 from=  1.00000e-08 to=  3.30004e-07
power_avg_uw        =  2.75286e+00


Total analysis time (seconds) = 1.28899

Total elapsed time (seconds) = 1.438 

Total DRAM available = 16384.000 MB.
DRAM currently available =  118.609 MB.
Maximum ngspice program size =   26.234 MB.
Current ngspice program size =   26.234 MB.

