
Note: Compatibility modes selected: hs a


Circuit: SKY130 library cell inv_4 A_to_Y

option SCALE: Scale is set to 1e-06 for instance and model parameters
Doing analysis at TEMP = 105.885960 and TNOM = 27.000000

Using KLU as Direct Linear Solver
 Reference value :  3.76781e-08
 Reference value :  1.33189e-07
 Reference value :  2.31448e-07
 Reference value :  3.27404e-07
No. of Data Rows : 68032

  Measurements for Transient Analysis

tphl                =  4.99963e-10 targ=  2.83528e-08 trig=  2.78528e-08
tplh                =  1.44524e-09 targ=  1.07004e-07 trig=  1.05558e-07
i_vdd_avg           =  -3.08840e-06 from=  1.00000e-08 to=  3.30004e-07
power_avg_uw        =  5.90070e+00


Total analysis time (seconds) = 0.89835

Total elapsed time (seconds) = 1.044 

Total DRAM available = 16384.000 MB.
DRAM currently available =  151.125 MB.
Maximum ngspice program size =   26.344 MB.
Current ngspice program size =   26.344 MB.

