
Note: Compatibility modes selected: hs a


Circuit: SKY130 library cell nand3_1 A_to_Y__B=1,C=1

option SCALE: Scale is set to 1e-06 for instance and model parameters
Doing analysis at TEMP = 37.118232 and TNOM = 27.000000

Using KLU as Direct Linear Solver
 Reference value :  2.98075e-08
 Reference value :  1.18033e-07
 Reference value :  2.18868e-07
 Reference value :  3.09603e-07
No. of Data Rows : 68032

  Measurements for Transient Analysis

tphl                =  1.38617e-09 targ=  2.76187e-08 trig=  2.62325e-08
tplh                =  1.90832e-09 targ=  1.02606e-07 trig=  1.00698e-07
i_vdd_avg           =  -7.65720e-07 from=  1.00000e-08 to=  3.30003e-07
power_avg_uw        =  1.26275e+00


Total analysis time (seconds) = 0.948511

Total elapsed time (seconds) = 1.120 

Total DRAM available = 16384.000 MB.
DRAM currently available =  265.781 MB.
Maximum ngspice program size =   27.703 MB.
Current ngspice program size =   27.703 MB.

