
Note: Compatibility modes selected: hs a


Circuit: SKY130 library cell nand2_1 A_to_Y__B=1

option SCALE: Scale is set to 1e-06 for instance and model parameters
Doing analysis at TEMP = -0.649782 and TNOM = 27.000000

Using KLU as Direct Linear Solver
 Reference value :  6.82243e-08
 Reference value :  2.20549e-07
No. of Data Rows : 68030

  Measurements for Transient Analysis

tphl                =  2.84923e-10 targ=  2.43933e-08 trig=  2.41084e-08
tplh                =  4.76768e-10 targ=  9.48020e-08 trig=  9.43252e-08
i_vdd_avg           =  -4.91796e-07 from=  1.00000e-08 to=  3.30001e-07
power_avg_uw        =  8.09639e-01


Total analysis time (seconds) = 0.5746

Total elapsed time (seconds) = 0.725 

Total DRAM available = 16384.000 MB.
DRAM currently available =  101.219 MB.
Maximum ngspice program size =   25.406 MB.
Current ngspice program size =   25.406 MB.

