
Note: Compatibility modes selected: hs a


Circuit: SKY130 library cell oai21_1 A1_to_Y__A2=0,B1=1

option SCALE: Scale is set to 1e-06 for instance and model parameters
Doing analysis at TEMP = 55.411413 and TNOM = 27.000000

Using KLU as Direct Linear Solver
 Reference value :  3.35930e-08
 Reference value :  1.29454e-07
 Reference value :  2.34443e-07
 Reference value :  3.35874e-07
No. of Data Rows : 68032

  Measurements for Transient Analysis

tphl                =  1.16888e-09 targ=  2.84041e-08 trig=  2.72353e-08
tplh                =  2.44834e-09 targ=  1.06154e-07 trig=  1.03706e-07
i_vdd_avg           =  -5.69629e-07 from=  1.00000e-08 to=  3.30004e-07
power_avg_uw        =  9.29205e-01


Total analysis time (seconds) = 0.864179

Total elapsed time (seconds) = 1.020 

Total DRAM available = 16384.000 MB.
DRAM currently available =  130.250 MB.
Maximum ngspice program size =   26.344 MB.
Current ngspice program size =   26.344 MB.

