
Note: Compatibility modes selected: hs a


Circuit: SKY130 library cell aoi21_1 A1_to_Y__A2=1,B1=0

option SCALE: Scale is set to 1e-06 for instance and model parameters
Doing analysis at TEMP = -20.533630 and TNOM = 27.000000

Using KLU as Direct Linear Solver
 Reference value :  2.86742e-08
 Reference value :  1.32571e-07
 Reference value :  2.29039e-07
 Reference value :  3.27691e-07
No. of Data Rows : 68030

  Measurements for Transient Analysis

tphl                =  5.73060e-10 targ=  2.57289e-08 trig=  2.51559e-08
tplh                =  1.52257e-09 targ=  9.89902e-08 trig=  9.74676e-08
i_vdd_avg           =  -8.40419e-07 from=  1.00000e-08 to=  3.30001e-07
power_avg_uw        =  1.44824e+00


Total analysis time (seconds) = 0.884791

Total elapsed time (seconds) = 1.050 

Total DRAM available = 16384.000 MB.
DRAM currently available =  133.797 MB.
Maximum ngspice program size =   26.656 MB.
Current ngspice program size =   26.656 MB.

