
Note: Compatibility modes selected: hs a


Circuit: SKY130 library cell nand2_1 A_to_Y__B=1

option SCALE: Scale is set to 1e-06 for instance and model parameters
Doing analysis at TEMP = 124.881310 and TNOM = 27.000000

Using KLU as Direct Linear Solver
 Reference value :  5.14677e-08
 Reference value :  2.13268e-07
No. of Data Rows : 68032

  Measurements for Transient Analysis

tphl                =  1.70006e-09 targ=  3.13402e-08 trig=  2.96401e-08
tplh                =  2.59166e-09 targ=  1.13512e-07 trig=  1.10920e-07
i_vdd_avg           =  -1.28080e-06 from=  1.00000e-08 to=  3.30003e-07
power_avg_uw        =  2.30268e+00


Total analysis time (seconds) = 0.535378

Total elapsed time (seconds) = 0.693 

Total DRAM available = 16384.000 MB.
DRAM currently available =   91.594 MB.
Maximum ngspice program size =   25.328 MB.
Current ngspice program size =   25.328 MB.

