
Note: Compatibility modes selected: hs a


Circuit: SKY130 library cell inv_4 A_to_Y

option SCALE: Scale is set to 1e-06 for instance and model parameters
Doing analysis at TEMP = 40.906332 and TNOM = 27.000000

Using KLU as Direct Linear Solver
 Reference value :  3.80446e-08
 Reference value :  1.30992e-07
 Reference value :  2.25835e-07
 Reference value :  3.19712e-07
No. of Data Rows : 68030

  Measurements for Transient Analysis

tphl                =  7.11113e-10 targ=  2.66497e-08 trig=  2.59386e-08
tplh                =  1.27369e-09 targ=  1.01089e-07 trig=  9.98157e-08
i_vdd_avg           =  -8.48337e-07 from=  1.00000e-08 to=  3.30002e-07
power_avg_uw        =  1.43293e+00


Total analysis time (seconds) = 0.908489

Total elapsed time (seconds) = 1.046 

Total DRAM available = 16384.000 MB.
DRAM currently available =  170.594 MB.
Maximum ngspice program size =   25.328 MB.
Current ngspice program size =   25.328 MB.

