
Note: Compatibility modes selected: hs a


Circuit: SKY130 library cell nor2_4 A_to_Y__B=0

option SCALE: Scale is set to 1e-06 for instance and model parameters
Doing analysis at TEMP = 100.677210 and TNOM = 27.000000

Using KLU as Direct Linear Solver
 Reference value :  1.39064e-08
 Reference value :  5.83489e-08
 Reference value :  1.04124e-07
 Reference value :  1.48610e-07
 Reference value :  1.94694e-07
 Reference value :  2.42144e-07
 Reference value :  2.90810e-07
 Reference value :  3.33985e-07
No. of Data Rows : 68030

  Measurements for Transient Analysis

tphl                =  7.70915e-10 targ=  2.87616e-08 trig=  2.79907e-08
tplh                =  2.01194e-09 targ=  1.07984e-07 trig=  1.05972e-07
i_vdd_avg           =  -2.29931e-06 from=  1.00000e-08 to=  3.30000e-07
power_avg_uw        =  3.96362e+00


Total analysis time (seconds) = 1.90396

Total elapsed time (seconds) = 2.064 

Total DRAM available = 16384.000 MB.
DRAM currently available =  103.906 MB.
Maximum ngspice program size =   24.594 MB.
Current ngspice program size =   24.594 MB.

