
Note: Compatibility modes selected: hs a


Circuit: SKY130 library cell inv_1 A_to_Y

option SCALE: Scale is set to 1e-06 for instance and model parameters
Doing analysis at TEMP = -14.419035 and TNOM = 27.000000

Using KLU as Direct Linear Solver
 Reference value :  1.26269e-07
No. of Data Rows : 68034

  Measurements for Transient Analysis

tphl                =  -4.37431e-11 targ=  2.56178e-08 trig=  2.56615e-08
tplh                =  6.16889e-10 targ=  9.96014e-08 trig=  9.89845e-08
i_vdd_avg           =  -1.34211e-07 from=  1.00000e-08 to=  3.30004e-07
power_avg_uw        =  2.31717e-01


Total analysis time (seconds) = 0.302871

Total elapsed time (seconds) = 0.434 

Total DRAM available = 16384.000 MB.
DRAM currently available =  199.781 MB.
Maximum ngspice program size =   25.766 MB.
Current ngspice program size =   25.766 MB.

