
Note: Compatibility modes selected: hs a


Circuit: SKY130 library cell nand2_4 A_to_Y__B=1

option SCALE: Scale is set to 1e-06 for instance and model parameters
Doing analysis at TEMP = 38.910989 and TNOM = 27.000000

Using KLU as Direct Linear Solver
 Reference value :  1.60414e-08
 Reference value :  6.48309e-08
 Reference value :  1.07571e-07
 Reference value :  1.54504e-07
 Reference value :  2.00666e-07
 Reference value :  2.47566e-07
 Reference value :  2.93614e-07
 Reference value :  3.36364e-07
No. of Data Rows : 68034

  Measurements for Transient Analysis

tphl                =  1.59488e-09 targ=  3.01716e-08 trig=  2.85767e-08
tplh                =  2.60795e-09 targ=  1.10338e-07 trig=  1.07730e-07
i_vdd_avg           =  -1.34876e-06 from=  1.00000e-08 to=  3.30004e-07
power_avg_uw        =  2.28126e+00


Total analysis time (seconds) = 1.88089

Total elapsed time (seconds) = 2.032 

Total DRAM available = 16384.000 MB.
DRAM currently available =   94.703 MB.
Maximum ngspice program size =   29.016 MB.
Current ngspice program size =   29.016 MB.

