
Note: Compatibility modes selected: hs a


Circuit: SKY130 library cell nor2_4 A_to_Y__B=0

option SCALE: Scale is set to 1e-06 for instance and model parameters
Doing analysis at TEMP = 14.876396 and TNOM = 27.000000

Using KLU as Direct Linear Solver
 Reference value :  1.39714e-08
 Reference value :  5.79657e-08
 Reference value :  1.03804e-07
 Reference value :  1.46714e-07
 Reference value :  1.90371e-07
 Reference value :  2.36386e-07
 Reference value :  2.81129e-07
 Reference value :  3.23574e-07
No. of Data Rows : 68034

  Measurements for Transient Analysis

tphl                =  6.93749e-10 targ=  2.62754e-08 trig=  2.55816e-08
tplh                =  1.73137e-09 targ=  1.00476e-07 trig=  9.87448e-08
i_vdd_avg           =  -1.95944e-06 from=  1.00000e-08 to=  3.30004e-07
power_avg_uw        =  3.19280e+00


Total analysis time (seconds) = 1.93909

Total elapsed time (seconds) = 2.107 

Total DRAM available = 16384.000 MB.
DRAM currently available =  135.641 MB.
Maximum ngspice program size =   26.078 MB.
Current ngspice program size =   26.078 MB.

