
Note: Compatibility modes selected: hs a


Circuit: SKY130 library cell aoi21_1 A1_to_Y__A2=1,B1=0

option SCALE: Scale is set to 1e-06 for instance and model parameters
Doing analysis at TEMP = 44.736266 and TNOM = 27.000000

Using KLU as Direct Linear Solver
 Reference value :  3.39425e-08
 Reference value :  1.34503e-07
 Reference value :  2.40073e-07
 Reference value :  3.32498e-07
No. of Data Rows : 68032

  Measurements for Transient Analysis

tphl                =  2.21300e-09 targ=  3.12580e-08 trig=  2.90450e-08
tplh                =  3.85386e-09 targ=  1.12989e-07 trig=  1.09135e-07
i_vdd_avg           =  -1.18600e-06 from=  1.00000e-08 to=  3.30003e-07
power_avg_uw        =  2.28066e+00


Total analysis time (seconds) = 0.853131

Total elapsed time (seconds) = 1.021 

Total DRAM available = 16384.000 MB.
DRAM currently available =  142.531 MB.
Maximum ngspice program size =   26.734 MB.
Current ngspice program size =   26.734 MB.

