
Note: Compatibility modes selected: hs a


Circuit: SKY130 library cell mux2_1 A0_to_X__A1=0,S=0

option SCALE: Scale is set to 1e-06 for instance and model parameters
Doing analysis at TEMP = 85.928079 and TNOM = 27.000000

Using KLU as Direct Linear Solver
 Reference value :  1.78064e-08
 Reference value :  7.41968e-08
 Reference value :  1.29886e-07
 Reference value :  1.82031e-07
 Reference value :  2.35382e-07
 Reference value :  2.88396e-07
 Reference value :  3.36616e-07
No. of Data Rows : 68032

  Measurements for Transient Analysis

tplh                =  1.04021e-09 targ=  2.94899e-08 trig=  2.84496e-08
tphl                =  2.11375e-09 targ=  1.09463e-07 trig=  1.07349e-07
i_vdd_avg           =  -3.58387e-07 from=  1.00000e-08 to=  3.30001e-07
power_avg_uw        =  5.99657e-01


Total analysis time (seconds) = 1.64653

Total elapsed time (seconds) = 1.824 

Total DRAM available = 16384.000 MB.
DRAM currently available =  171.391 MB.
Maximum ngspice program size =   25.750 MB.
Current ngspice program size =   25.750 MB.

