
Note: Compatibility modes selected: hs a


Circuit: SKY130 library cell mux2_4 A0_to_X__A1=0,S=0

option SCALE: Scale is set to 1e-06 for instance and model parameters
Doing analysis at TEMP = 3.967733 and TNOM = 27.000000

Using KLU as Direct Linear Solver
 Reference value :  9.79640e-09
 Reference value :  4.45585e-08
 Reference value :  8.17285e-08
 Reference value :  1.18555e-07
 Reference value :  1.55200e-07
 Reference value :  1.91189e-07
 Reference value :  2.28769e-07
 Reference value :  2.66159e-07
 Reference value :  3.01865e-07
 Reference value :  3.36680e-07
No. of Data Rows : 68032

  Measurements for Transient Analysis

tplh                =  1.17285e-09 targ=  2.85809e-08 trig=  2.74080e-08
tphl                =  1.94472e-09 targ=  1.06169e-07 trig=  1.04224e-07
i_vdd_avg           =  -2.44562e-06 from=  1.00000e-08 to=  3.30005e-07
power_avg_uw        =  4.55078e+00


Total analysis time (seconds) = 2.38824

Total elapsed time (seconds) = 2.566 

Total DRAM available = 16384.000 MB.
DRAM currently available =  214.609 MB.
Maximum ngspice program size =   27.000 MB.
Current ngspice program size =   27.000 MB.

