
Note: Compatibility modes selected: hs a


Circuit: SKY130 library cell xor2_4 A_to_X__B=0

option SCALE: Scale is set to 1e-06 for instance and model parameters
Doing analysis at TEMP = 70.561507 and TNOM = 27.000000

Using KLU as Direct Linear Solver
 Reference value :  3.09140e-09
 Reference value :  2.13314e-08
 Reference value :  3.87881e-08
 Reference value :  5.65031e-08
 Reference value :  7.33731e-08
 Reference value :  8.86781e-08
 Reference value :  1.07044e-07
 Reference value :  1.22554e-07
 Reference value :  1.39474e-07
 Reference value :  1.56729e-07
 Reference value :  1.74274e-07
 Reference value :  1.91563e-07
 Reference value :  2.09423e-07
 Reference value :  2.27253e-07
 Reference value :  2.43898e-07
 Reference value :  2.61114e-07
 Reference value :  2.77824e-07
 Reference value :  2.96284e-07
 Reference value :  3.12779e-07
 Reference value :  3.29799e-07
No. of Data Rows : 68032

  Measurements for Transient Analysis

tplh                =  4.24532e-10 targ=  2.48648e-08 trig=  2.44403e-08
tphl                =  2.96453e-10 targ=  9.56174e-08 trig=  9.53209e-08
i_vdd_avg           =  -2.82937e-06 from=  1.00000e-08 to=  3.30004e-07
power_avg_uw        =  5.49127e+00


Total analysis time (seconds) = 5.0008

Total elapsed time (seconds) = 5.219 

Total DRAM available = 16384.000 MB.
DRAM currently available =  123.109 MB.
Maximum ngspice program size =   28.953 MB.
Current ngspice program size =   28.953 MB.

