
Note: Compatibility modes selected: hs a


Circuit: SKY130 library cell xor2_1 A_to_X__B=0

option SCALE: Scale is set to 1e-06 for instance and model parameters
Doing analysis at TEMP = 34.091304 and TNOM = 27.000000

Using KLU as Direct Linear Solver
 Reference value :  2.26064e-08
 Reference value :  9.42075e-08
 Reference value :  1.63562e-07
 Reference value :  2.31292e-07
 Reference value :  2.96907e-07
No. of Data Rows : 68032

  Measurements for Transient Analysis

tplh                =  2.94343e-09 targ=  3.01059e-08 trig=  2.71625e-08
tphl                =  1.55183e-09 targ=  1.05039e-07 trig=  1.03487e-07
i_vdd_avg           =  -1.80085e-06 from=  1.00000e-08 to=  3.30002e-07
power_avg_uw        =  2.97385e+00


Total analysis time (seconds) = 1.25761

Total elapsed time (seconds) = 1.426 

Total DRAM available = 16384.000 MB.
DRAM currently available =  127.406 MB.
Maximum ngspice program size =   26.922 MB.
Current ngspice program size =   26.922 MB.

