
Note: Compatibility modes selected: hs a


Circuit: SKY130 library cell xor2_1 A_to_X__B=0

option SCALE: Scale is set to 1e-06 for instance and model parameters
Doing analysis at TEMP = -26.965304 and TNOM = 27.000000

Using KLU as Direct Linear Solver
 Reference value :  2.02464e-08
 Reference value :  8.48626e-08
 Reference value :  1.53788e-07
 Reference value :  2.24098e-07
 Reference value :  2.92353e-07
No. of Data Rows : 68032

  Measurements for Transient Analysis

tplh                =  4.56642e-09 targ=  3.33340e-08 trig=  2.87675e-08
tphl                =  2.42295e-09 targ=  1.10726e-07 trig=  1.08303e-07
i_vdd_avg           =  -2.39790e-06 from=  1.00000e-08 to=  3.30003e-07
power_avg_uw        =  4.41295e+00


Total analysis time (seconds) = 1.27957

Total elapsed time (seconds) = 1.435 

Total DRAM available = 16384.000 MB.
DRAM currently available =  152.172 MB.
Maximum ngspice program size =   25.141 MB.
Current ngspice program size =   25.141 MB.

