
Note: Compatibility modes selected: hs a


Circuit: SKY130 library cell nand3_1 A_to_Y__B=1,C=1

option SCALE: Scale is set to 1e-06 for instance and model parameters
Doing analysis at TEMP = 32.682916 and TNOM = 27.000000

Using KLU as Direct Linear Solver
 Reference value :  3.01713e-08
 Reference value :  1.28060e-07
 Reference value :  2.24006e-07
 Reference value :  3.23370e-07
No. of Data Rows : 68032

  Measurements for Transient Analysis

tphl                =  7.61026e-10 targ=  2.63229e-08 trig=  2.55619e-08
tplh                =  1.05209e-09 targ=  9.97378e-08 trig=  9.86857e-08
i_vdd_avg           =  -1.52069e-07 from=  1.00000e-08 to=  3.30000e-07
power_avg_uw        =  2.52037e-01


Total analysis time (seconds) = 0.89562

Total elapsed time (seconds) = 1.062 

Total DRAM available = 16384.000 MB.
DRAM currently available =  176.766 MB.
Maximum ngspice program size =   26.359 MB.
Current ngspice program size =   26.359 MB.

