
Note: Compatibility modes selected: hs a


Circuit: SKY130 library cell aoi21_4 A1_to_Y__A2=1,B1=0

option SCALE: Scale is set to 1e-06 for instance and model parameters
Doing analysis at TEMP = 119.109100 and TNOM = 27.000000

Using KLU as Direct Linear Solver
 Reference value :  8.30140e-09
 Reference value :  3.71297e-08
 Reference value :  6.47147e-08
 Reference value :  9.30147e-08
 Reference value :  1.18252e-07
 Reference value :  1.44532e-07
 Reference value :  1.73957e-07
 Reference value :  2.01715e-07
 Reference value :  2.29950e-07
 Reference value :  2.58367e-07
 Reference value :  2.86837e-07
 Reference value :  3.14687e-07
No. of Data Rows : 68030

  Measurements for Transient Analysis

tphl                =  2.86804e-10 targ=  2.46329e-08 trig=  2.43461e-08
tplh                =  5.17638e-10 targ=  9.55560e-08 trig=  9.50384e-08
i_vdd_avg           =  -2.00648e-06 from=  1.00000e-08 to=  3.30002e-07
power_avg_uw        =  3.59632e+00


Total analysis time (seconds) = 3.11447

Total elapsed time (seconds) = 3.285 

Total DRAM available = 16384.000 MB.
DRAM currently available =  123.516 MB.
Maximum ngspice program size =   25.906 MB.
Current ngspice program size =   25.906 MB.

