
Note: Compatibility modes selected: hs a


Circuit: SKY130 library cell aoi21_1 A1_to_Y__A2=1,B1=0

option SCALE: Scale is set to 1e-06 for instance and model parameters
Doing analysis at TEMP = 30.554836 and TNOM = 27.000000

Using KLU as Direct Linear Solver
 Reference value :  3.57217e-08
 Reference value :  1.39161e-07
 Reference value :  2.36357e-07
 Reference value :  3.29406e-07
No. of Data Rows : 68032

  Measurements for Transient Analysis

tphl                =  1.97288e-09 targ=  3.03800e-08 trig=  2.84071e-08
tplh                =  4.07205e-09 targ=  1.11293e-07 trig=  1.07221e-07
i_vdd_avg           =  -1.29996e-06 from=  1.00000e-08 to=  3.30001e-07
power_avg_uw        =  2.21486e+00


Total analysis time (seconds) = 0.874796

Total elapsed time (seconds) = 1.037 

Total DRAM available = 16384.000 MB.
DRAM currently available =  122.281 MB.
Maximum ngspice program size =   25.156 MB.
Current ngspice program size =   25.156 MB.

