
Note: Compatibility modes selected: hs a


Circuit: SKY130 library cell nor2_4 A_to_Y__B=0

option SCALE: Scale is set to 1e-06 for instance and model parameters
Doing analysis at TEMP = 95.723471 and TNOM = 27.000000

Using KLU as Direct Linear Solver
 Reference value :  1.18564e-08
 Reference value :  5.84912e-08
 Reference value :  1.02670e-07
 Reference value :  1.46895e-07
 Reference value :  1.92446e-07
 Reference value :  2.36936e-07
 Reference value :  2.80735e-07
 Reference value :  3.24065e-07
No. of Data Rows : 68034

  Measurements for Transient Analysis

tphl                =  3.57109e-10 targ=  2.48665e-08 trig=  2.45094e-08
tplh                =  7.11859e-10 targ=  9.62400e-08 trig=  9.55281e-08
i_vdd_avg           =  -1.39235e-06 from=  1.00000e-08 to=  3.30005e-07
power_avg_uw        =  2.60846e+00


Total analysis time (seconds) = 1.95028

Total elapsed time (seconds) = 2.108 

Total DRAM available = 16384.000 MB.
DRAM currently available =  125.875 MB.
Maximum ngspice program size =   27.234 MB.
Current ngspice program size =   27.234 MB.

