
Note: Compatibility modes selected: hs a


Circuit: SKY130 library cell mux2_4 A0_to_X__A1=0,S=0

option SCALE: Scale is set to 1e-06 for instance and model parameters
Doing analysis at TEMP = 30.637535 and TNOM = 27.000000

Using KLU as Direct Linear Solver
 Reference value :  1.20364e-08
 Reference value :  5.07661e-08
 Reference value :  8.82061e-08
 Reference value :  1.23820e-07
 Reference value :  1.61150e-07
 Reference value :  1.97821e-07
 Reference value :  2.31551e-07
 Reference value :  2.68115e-07
 Reference value :  3.03990e-07
No. of Data Rows : 68034

  Measurements for Transient Analysis

tplh                =  1.09299e-10 targ=  2.65211e-08 trig=  2.64118e-08
tphl                =  9.01635e-10 targ=  1.02137e-07 trig=  1.01235e-07
i_vdd_avg           =  -1.12979e-06 from=  1.00000e-08 to=  3.30005e-07
power_avg_uw        =  2.04118e+00


Total analysis time (seconds) = 2.3578

Total elapsed time (seconds) = 2.523 

Total DRAM available = 16384.000 MB.
DRAM currently available =  219.922 MB.
Maximum ngspice program size =   26.453 MB.
Current ngspice program size =   26.453 MB.

