
Note: Compatibility modes selected: hs a


Circuit: SKY130 library cell oai21_4 A1_to_Y__A2=0,B1=1

option SCALE: Scale is set to 1e-06 for instance and model parameters
Doing analysis at TEMP = 14.175875 and TNOM = 27.000000

Using KLU as Direct Linear Solver
 Reference value :  6.85640e-09
 Reference value :  3.07427e-08
 Reference value :  5.71277e-08
 Reference value :  8.45677e-08
 Reference value :  1.10558e-07
 Reference value :  1.39363e-07
 Reference value :  1.68293e-07
 Reference value :  1.95503e-07
 Reference value :  2.24398e-07
 Reference value :  2.52728e-07
 Reference value :  2.81653e-07
 Reference value :  3.10953e-07
 Reference value :  3.37843e-07
No. of Data Rows : 68032

  Measurements for Transient Analysis

tphl                =  8.17901e-10 targ=  2.74105e-08 trig=  2.65926e-08
tplh                =  1.72673e-09 targ=  1.03504e-07 trig=  1.01778e-07
i_vdd_avg           =  -1.32418e-06 from=  1.00000e-08 to=  3.30003e-07
power_avg_uw        =  2.48116e+00


Total analysis time (seconds) = 3.1644

Total elapsed time (seconds) = 3.351 

Total DRAM available = 16384.000 MB.
DRAM currently available =  233.141 MB.
Maximum ngspice program size =   26.656 MB.
Current ngspice program size =   26.656 MB.

