
Note: Compatibility modes selected: hs a


Circuit: SKY130 library cell mux2_1 A0_to_X__A1=0,S=0

option SCALE: Scale is set to 1e-06 for instance and model parameters
Doing analysis at TEMP = 49.978728 and TNOM = 27.000000

Using KLU as Direct Linear Solver
 Reference value :  1.33564e-08
 Reference value :  6.19957e-08
 Reference value :  1.08216e-07
 Reference value :  1.56584e-07
 Reference value :  2.07491e-07
 Reference value :  2.53886e-07
 Reference value :  3.02389e-07
No. of Data Rows : 68034

  Measurements for Transient Analysis

tplh                =  1.63229e-09 targ=  2.94589e-08 trig=  2.78266e-08
tphl                =  2.20252e-09 targ=  1.07682e-07 trig=  1.05480e-07
i_vdd_avg           =  -1.47481e-06 from=  1.00000e-08 to=  3.30004e-07
power_avg_uw        =  2.66699e+00


Total analysis time (seconds) = 1.90826

Total elapsed time (seconds) = 2.089 

Total DRAM available = 16384.000 MB.
DRAM currently available =  153.047 MB.
Maximum ngspice program size =   27.484 MB.
Current ngspice program size =   27.484 MB.

