
Note: Compatibility modes selected: hs a


Circuit: SKY130 library cell xor2_1 A_to_X__B=0

option SCALE: Scale is set to 1e-06 for instance and model parameters
Doing analysis at TEMP = -38.913925 and TNOM = 27.000000

Using KLU as Direct Linear Solver
 Reference value :  2.52725e-08
 Reference value :  9.73746e-08
 Reference value :  1.67092e-07
 Reference value :  2.37790e-07
 Reference value :  3.09872e-07
No. of Data Rows : 68030

  Measurements for Transient Analysis

tplh                =  3.01448e-09 targ=  3.04581e-08 trig=  2.74436e-08
tphl                =  2.30914e-09 targ=  1.06640e-07 trig=  1.04331e-07
i_vdd_avg           =  -7.76618e-07 from=  1.00000e-08 to=  3.30002e-07
power_avg_uw        =  1.27537e+00


Total analysis time (seconds) = 1.21673

Total elapsed time (seconds) = 1.381 

Total DRAM available = 16384.000 MB.
DRAM currently available =  128.297 MB.
Maximum ngspice program size =   26.672 MB.
Current ngspice program size =   26.672 MB.

