
Note: Compatibility modes selected: hs a


Circuit: SKY130 library cell xor2_4 A_to_X__B=0

option SCALE: Scale is set to 1e-06 for instance and model parameters
Doing analysis at TEMP = 62.433372 and TNOM = 27.000000

Using KLU as Direct Linear Solver
 Reference value :  5.06140e-09
 Reference value :  2.24464e-08
 Reference value :  3.89384e-08
 Reference value :  5.55134e-08
 Reference value :  7.24784e-08
 Reference value :  8.90834e-08
 Reference value :  1.06269e-07
 Reference value :  1.23264e-07
 Reference value :  1.42079e-07
 Reference value :  1.60199e-07
 Reference value :  1.78034e-07
 Reference value :  1.95458e-07
 Reference value :  2.12848e-07
 Reference value :  2.29963e-07
 Reference value :  2.47118e-07
 Reference value :  2.63719e-07
 Reference value :  2.81374e-07
 Reference value :  2.98194e-07
 Reference value :  3.16184e-07
 Reference value :  3.34869e-07
No. of Data Rows : 68032

  Measurements for Transient Analysis

tplh                =  5.59329e-10 targ=  2.47698e-08 trig=  2.42104e-08
tphl                =  2.79698e-10 targ=  9.49110e-08 trig=  9.46313e-08
i_vdd_avg           =  -2.42222e-06 from=  1.00000e-08 to=  3.30004e-07
power_avg_uw        =  4.72348e+00


Total analysis time (seconds) = 4.97134

Total elapsed time (seconds) = 5.135 

Total DRAM available = 16384.000 MB.
DRAM currently available =  133.500 MB.
Maximum ngspice program size =   30.609 MB.
Current ngspice program size =   30.609 MB.

