
Note: Compatibility modes selected: hs a


Circuit: SKY130 library cell inv_1 A_to_Y

option SCALE: Scale is set to 1e-06 for instance and model parameters
Doing analysis at TEMP = 66.861085 and TNOM = 27.000000

Using KLU as Direct Linear Solver
 Reference value :  1.10917e-07
No. of Data Rows : 68032

  Measurements for Transient Analysis

tphl                =  9.09601e-10 targ=  2.54945e-08 trig=  2.45849e-08
tplh                =  1.72956e-09 targ=  9.74842e-08 trig=  9.57546e-08
i_vdd_avg           =  -2.00095e-06 from=  1.00000e-08 to=  3.30002e-07
power_avg_uw        =  3.34293e+00


Total analysis time (seconds) = 0.317903

Total elapsed time (seconds) = 0.457 

Total DRAM available = 16384.000 MB.
DRAM currently available =  132.047 MB.
Maximum ngspice program size =   26.609 MB.
Current ngspice program size =   26.609 MB.

