
Note: Compatibility modes selected: hs a


Circuit: SKY130 library cell nor2_4 A_to_Y__B=0

option SCALE: Scale is set to 1e-06 for instance and model parameters
Doing analysis at TEMP = 107.259110 and TNOM = 27.000000

Using KLU as Direct Linear Solver
 Reference value :  1.28614e-08
 Reference value :  5.95244e-08
 Reference value :  1.02296e-07
 Reference value :  1.44271e-07
 Reference value :  1.89264e-07
 Reference value :  2.34719e-07
 Reference value :  2.79141e-07
 Reference value :  3.25436e-07
No. of Data Rows : 68030

  Measurements for Transient Analysis

tphl                =  8.96775e-10 targ=  2.67377e-08 trig=  2.58409e-08
tplh                =  1.55582e-09 targ=  1.01079e-07 trig=  9.95228e-08
i_vdd_avg           =  -1.43725e-06 from=  1.00000e-08 to=  3.30001e-07
power_avg_uw        =  2.40697e+00


Total analysis time (seconds) = 1.93433

Total elapsed time (seconds) = 2.102 

Total DRAM available = 16384.000 MB.
DRAM currently available =  102.875 MB.
Maximum ngspice program size =   27.109 MB.
Current ngspice program size =   27.109 MB.

