
Note: Compatibility modes selected: hs a


Circuit: SKY130 library cell mux2_4 A0_to_X__A1=0,S=0

option SCALE: Scale is set to 1e-06 for instance and model parameters
Doing analysis at TEMP = 110.041810 and TNOM = 27.000000

Using KLU as Direct Linear Solver
 Reference value :  9.42640e-09
 Reference value :  4.42596e-08
 Reference value :  7.94846e-08
 Reference value :  1.16302e-07
 Reference value :  1.54317e-07
 Reference value :  1.91413e-07
 Reference value :  2.28175e-07
 Reference value :  2.66150e-07
 Reference value :  3.02827e-07
 Reference value :  3.35572e-07
No. of Data Rows : 68030

  Measurements for Transient Analysis

tplh                =  6.75405e-10 targ=  2.91440e-08 trig=  2.84686e-08
tphl                =  1.47497e-09 targ=  1.08881e-07 trig=  1.07406e-07
i_vdd_avg           =  -1.73621e-06 from=  1.00000e-08 to=  3.30002e-07
power_avg_uw        =  2.96948e+00


Total analysis time (seconds) = 2.39342

Total elapsed time (seconds) = 2.576 

Total DRAM available = 16384.000 MB.
DRAM currently available =  172.859 MB.
Maximum ngspice program size =   26.578 MB.
Current ngspice program size =   26.578 MB.

