
Note: Compatibility modes selected: hs a


Circuit: SKY130 library cell nor2_4 A_to_Y__B=0

option SCALE: Scale is set to 1e-06 for instance and model parameters
Doing analysis at TEMP = 75.707983 and TNOM = 27.000000

Using KLU as Direct Linear Solver
 Reference value :  1.44014e-08
 Reference value :  5.77962e-08
 Reference value :  1.02245e-07
 Reference value :  1.43250e-07
 Reference value :  1.87171e-07
 Reference value :  2.31331e-07
 Reference value :  2.75385e-07
 Reference value :  3.16950e-07
No. of Data Rows : 68034

  Measurements for Transient Analysis

tphl                =  2.39630e-10 targ=  2.47340e-08 trig=  2.44944e-08
tplh                =  4.62808e-10 targ=  9.59459e-08 trig=  9.54831e-08
i_vdd_avg           =  -6.89028e-07 from=  1.00000e-08 to=  3.30005e-07
power_avg_uw        =  1.30189e+00


Total analysis time (seconds) = 2.006

Total elapsed time (seconds) = 2.168 

Total DRAM available = 16384.000 MB.
DRAM currently available =  147.672 MB.
Maximum ngspice program size =   25.953 MB.
Current ngspice program size =   25.953 MB.

