
Note: Compatibility modes selected: hs a


Circuit: SKY130 library cell inv_1 A_to_Y

option SCALE: Scale is set to 1e-06 for instance and model parameters
Doing analysis at TEMP = 55.778560 and TNOM = 27.000000

Using KLU as Direct Linear Solver
 Reference value :  1.18083e-07
No. of Data Rows : 68034

  Measurements for Transient Analysis

tphl                =  1.19047e-09 targ=  2.60045e-08 trig=  2.48140e-08
tplh                =  2.20799e-09 targ=  9.86500e-08 trig=  9.64420e-08
i_vdd_avg           =  -2.33101e-06 from=  1.00000e-08 to=  3.30003e-07
power_avg_uw        =  4.30265e+00


Total analysis time (seconds) = 0.272109

Total elapsed time (seconds) = 0.427 

Total DRAM available = 16384.000 MB.
DRAM currently available =  115.344 MB.
Maximum ngspice program size =   26.688 MB.
Current ngspice program size =   26.688 MB.

