
Note: Compatibility modes selected: hs a


Circuit: SKY130 library cell oai21_4 A1_to_Y__A2=0,B1=1

option SCALE: Scale is set to 1e-06 for instance and model parameters
Doing analysis at TEMP = -26.219126 and TNOM = 27.000000

Using KLU as Direct Linear Solver
 Reference value :  6.45140e-09
 Reference value :  3.10493e-08
 Reference value :  5.78793e-08
 Reference value :  8.54293e-08
 Reference value :  1.12131e-07
 Reference value :  1.38736e-07
 Reference value :  1.66521e-07
 Reference value :  1.92659e-07
 Reference value :  2.21289e-07
 Reference value :  2.50584e-07
 Reference value :  2.76986e-07
 Reference value :  3.03706e-07
 Reference value :  3.32531e-07
No. of Data Rows : 68030

  Measurements for Transient Analysis

tphl                =  1.21585e-10 targ=  2.62975e-08 trig=  2.61759e-08
tplh                =  9.29040e-10 targ=  1.01457e-07 trig=  1.00528e-07
i_vdd_avg           =  -6.88284e-07 from=  1.00000e-08 to=  3.30001e-07
power_avg_uw        =  1.33837e+00


Total analysis time (seconds) = 3.26003

Total elapsed time (seconds) = 3.532 

Total DRAM available = 16384.000 MB.
DRAM currently available =  141.922 MB.
Maximum ngspice program size =   28.016 MB.
Current ngspice program size =   28.016 MB.

