
Note: Compatibility modes selected: hs a


Circuit: SKY130 library cell xor2_1 A_to_X__B=0

option SCALE: Scale is set to 1e-06 for instance and model parameters
Doing analysis at TEMP = 41.382183 and TNOM = 27.000000

Using KLU as Direct Linear Solver
 Reference value :  2.50475e-08
 Reference value :  9.41739e-08
 Reference value :  1.55375e-07
 Reference value :  2.21654e-07
 Reference value :  2.89560e-07
No. of Data Rows : 68030

  Measurements for Transient Analysis

tplh                =  4.61008e-10 targ=  2.68317e-08 trig=  2.63707e-08
tphl                =  8.29023e-10 targ=  1.01941e-07 trig=  1.01112e-07
i_vdd_avg           =  -1.34139e-06 from=  1.00000e-08 to=  3.30000e-07
power_avg_uw        =  2.58702e+00


Total analysis time (seconds) = 1.2747

Total elapsed time (seconds) = 1.432 

Total DRAM available = 16384.000 MB.
DRAM currently available =  127.406 MB.
Maximum ngspice program size =   25.016 MB.
Current ngspice program size =   25.016 MB.

