
Note: Compatibility modes selected: hs a


Circuit: SKY130 library cell nand3_4 A_to_Y__B=1,C=1

option SCALE: Scale is set to 1e-06 for instance and model parameters
Doing analysis at TEMP = 48.393722 and TNOM = 27.000000

Using KLU as Direct Linear Solver
 Reference value :  8.09140e-09
 Reference value :  3.72080e-08
 Reference value :  6.53030e-08
 Reference value :  9.23980e-08
 Reference value :  1.19838e-07
 Reference value :  1.47588e-07
 Reference value :  1.75878e-07
 Reference value :  2.03688e-07
 Reference value :  2.31798e-07
 Reference value :  2.58383e-07
 Reference value :  2.87113e-07
 Reference value :  3.15308e-07
No. of Data Rows : 68032

  Measurements for Transient Analysis

tphl                =  4.34508e-10 targ=  2.66672e-08 trig=  2.62327e-08
tplh                =  1.04884e-09 targ=  1.01747e-07 trig=  1.00698e-07
i_vdd_avg           =  -1.63687e-06 from=  1.00000e-08 to=  3.30003e-07
power_avg_uw        =  2.73881e+00


Total analysis time (seconds) = 3.06657

Total elapsed time (seconds) = 3.233 

Total DRAM available = 16384.000 MB.
DRAM currently available =  133.797 MB.
Maximum ngspice program size =   26.453 MB.
Current ngspice program size =   26.453 MB.

