
Note: Compatibility modes selected: hs a


Circuit: SKY130 library cell xor2_4 A_to_X__B=0

option SCALE: Scale is set to 1e-06 for instance and model parameters
Doing analysis at TEMP = 51.671058 and TNOM = 27.000000

Using KLU as Direct Linear Solver
 Reference value :  3.99640e-09
 Reference value :  2.20114e-08
 Reference value :  4.00310e-08
 Reference value :  5.66310e-08
 Reference value :  7.35760e-08
 Reference value :  9.05760e-08
 Reference value :  1.08165e-07
 Reference value :  1.25585e-07
 Reference value :  1.43305e-07
 Reference value :  1.60990e-07
 Reference value :  1.78775e-07
 Reference value :  1.95881e-07
 Reference value :  2.13136e-07
 Reference value :  2.29766e-07
 Reference value :  2.47011e-07
 Reference value :  2.63221e-07
 Reference value :  2.79275e-07
 Reference value :  2.96820e-07
 Reference value :  3.13595e-07
 Reference value :  3.31565e-07
No. of Data Rows : 68034

  Measurements for Transient Analysis

tplh                =  -1.17140e-10 targ=  2.72821e-08 trig=  2.73993e-08
tphl                =  8.47965e-10 targ=  1.05046e-07 trig=  1.04198e-07
i_vdd_avg           =  -1.76509e-06 from=  1.00000e-08 to=  3.30005e-07
power_avg_uw        =  3.06288e+00


Total analysis time (seconds) = 5.00365

Total elapsed time (seconds) = 5.191 

Total DRAM available = 16384.000 MB.
DRAM currently available =  134.031 MB.
Maximum ngspice program size =   28.109 MB.
Current ngspice program size =   28.109 MB.

