
Note: Compatibility modes selected: hs a


Circuit: SKY130 library cell mux2_1 A0_to_X__A1=0,S=0

option SCALE: Scale is set to 1e-06 for instance and model parameters
Doing analysis at TEMP = 94.226875 and TNOM = 27.000000

Using KLU as Direct Linear Solver
 Reference value :  1.61664e-08
 Reference value :  6.78919e-08
 Reference value :  1.23006e-07
 Reference value :  1.72711e-07
 Reference value :  2.24887e-07
 Reference value :  2.73581e-07
 Reference value :  3.25261e-07
No. of Data Rows : 68032

  Measurements for Transient Analysis

tplh                =  1.49723e-09 targ=  2.65794e-08 trig=  2.50822e-08
tphl                =  1.26792e-09 targ=  9.85146e-08 trig=  9.72466e-08
i_vdd_avg           =  -1.89454e-06 from=  1.00000e-08 to=  3.30001e-07
power_avg_uw        =  3.14974e+00


Total analysis time (seconds) = 1.70013

Total elapsed time (seconds) = 1.869 

Total DRAM available = 16384.000 MB.
DRAM currently available =  117.859 MB.
Maximum ngspice program size =   28.734 MB.
Current ngspice program size =   28.734 MB.

