
Note: Compatibility modes selected: hs a


Circuit: SKY130 library cell nor2_4 A_to_Y__B=0

option SCALE: Scale is set to 1e-06 for instance and model parameters
Doing analysis at TEMP = 40.579510 and TNOM = 27.000000

Using KLU as Direct Linear Solver
 Reference value :  1.58564e-08
 Reference value :  5.70300e-08
 Reference value :  9.79924e-08
 Reference value :  1.44147e-07
 Reference value :  1.87220e-07
 Reference value :  2.30925e-07
 Reference value :  2.76782e-07
 Reference value :  3.21577e-07
No. of Data Rows : 68030

  Measurements for Transient Analysis

tphl                =  9.65197e-11 targ=  2.43002e-08 trig=  2.42037e-08
tplh                =  2.62824e-10 targ=  9.48740e-08 trig=  9.46112e-08
i_vdd_avg           =  -8.92975e-07 from=  1.00000e-08 to=  3.30002e-07
power_avg_uw        =  1.65429e+00


Total analysis time (seconds) = 1.97296

Total elapsed time (seconds) = 2.131 

Total DRAM available = 16384.000 MB.
DRAM currently available =  147.672 MB.
Maximum ngspice program size =   26.328 MB.
Current ngspice program size =   26.328 MB.

