
Note: Compatibility modes selected: hs a


Circuit: SKY130 library cell nand3_4 A_to_Y__B=1,C=1

option SCALE: Scale is set to 1e-06 for instance and model parameters
Doing analysis at TEMP = 116.056250 and TNOM = 27.000000

Using KLU as Direct Linear Solver
 Reference value :  6.85140e-09
 Reference value :  3.45811e-08
 Reference value :  6.24611e-08
 Reference value :  9.03311e-08
 Reference value :  1.18160e-07
 Reference value :  1.45090e-07
 Reference value :  1.73150e-07
 Reference value :  2.00551e-07
 Reference value :  2.28656e-07
 Reference value :  2.56756e-07
 Reference value :  2.84555e-07
 Reference value :  3.11555e-07
 Reference value :  3.38900e-07
No. of Data Rows : 68034

  Measurements for Transient Analysis

tphl                =  1.56123e-09 targ=  2.93480e-08 trig=  2.77868e-08
tplh                =  1.73967e-09 targ=  1.07100e-07 trig=  1.05360e-07
i_vdd_avg           =  -1.00578e-06 from=  1.00000e-08 to=  3.30005e-07
power_avg_uw        =  1.63230e+00


Total analysis time (seconds) = 3.10441

Total elapsed time (seconds) = 3.285 

Total DRAM available = 16384.000 MB.
DRAM currently available =   83.703 MB.
Maximum ngspice program size =   28.812 MB.
Current ngspice program size =   28.812 MB.

