
Note: Compatibility modes selected: hs a


Circuit: SKY130 library cell inv_4 A_to_Y

option SCALE: Scale is set to 1e-06 for instance and model parameters
Doing analysis at TEMP = 11.955052 and TNOM = 27.000000

Using KLU as Direct Linear Solver
 Reference value :  3.32984e-08
 Reference value :  1.28514e-07
 Reference value :  2.26263e-07
 Reference value :  3.24744e-07
No. of Data Rows : 68032

  Measurements for Transient Analysis

tphl                =  4.83025e-10 targ=  2.81385e-08 trig=  2.76555e-08
tplh                =  1.75767e-09 targ=  1.06724e-07 trig=  1.04966e-07
i_vdd_avg           =  -2.22680e-06 from=  1.00000e-08 to=  3.30004e-07
power_avg_uw        =  4.17223e+00


Total analysis time (seconds) = 0.887598

Total elapsed time (seconds) = 1.039 

Total DRAM available = 16384.000 MB.
DRAM currently available =  151.125 MB.
Maximum ngspice program size =   26.094 MB.
Current ngspice program size =   26.094 MB.

