
Note: Compatibility modes selected: hs a


Circuit: SKY130 library cell nand2_4 A_to_Y__B=1

option SCALE: Scale is set to 1e-06 for instance and model parameters
Doing analysis at TEMP = 69.074382 and TNOM = 27.000000

Using KLU as Direct Linear Solver
 Reference value :  1.44464e-08
 Reference value :  5.69913e-08
 Reference value :  1.01065e-07
 Reference value :  1.47960e-07
 Reference value :  1.90076e-07
 Reference value :  2.37111e-07
 Reference value :  2.82150e-07
 Reference value :  3.26795e-07
No. of Data Rows : 68032

  Measurements for Transient Analysis

tphl                =  1.80111e-10 targ=  2.49070e-08 trig=  2.47269e-08
tplh                =  2.99943e-10 targ=  9.64806e-08 trig=  9.61806e-08
i_vdd_avg           =  -2.66103e-07 from=  1.00000e-08 to=  3.30000e-07
power_avg_uw        =  5.04355e-01


Total analysis time (seconds) = 1.92001

Total elapsed time (seconds) = 2.084 

Total DRAM available = 16384.000 MB.
DRAM currently available =   95.531 MB.
Maximum ngspice program size =   26.328 MB.
Current ngspice program size =   26.328 MB.

