
Note: Compatibility modes selected: hs a


Circuit: SKY130 library cell inv_1 A_to_Y

option SCALE: Scale is set to 1e-06 for instance and model parameters
Doing analysis at TEMP = 48.052658 and TNOM = 27.000000

Using KLU as Direct Linear Solver
 Reference value :  1.08160e-07
No. of Data Rows : 68030

  Measurements for Transient Analysis

tphl                =  4.21086e-10 targ=  2.81197e-08 trig=  2.76986e-08
tplh                =  1.81063e-09 targ=  1.06906e-07 trig=  1.05096e-07
i_vdd_avg           =  -8.10849e-07 from=  1.00000e-08 to=  3.30002e-07
power_avg_uw        =  1.38227e+00


Total analysis time (seconds) = 0.310813

Total elapsed time (seconds) = 0.461 

Total DRAM available = 16384.000 MB.
DRAM currently available =  113.906 MB.
Maximum ngspice program size =   26.578 MB.
Current ngspice program size =   26.578 MB.

