
Note: Compatibility modes selected: hs a


Circuit: SKY130 library cell oai21_4 A1_to_Y__A2=0,B1=1

option SCALE: Scale is set to 1e-06 for instance and model parameters
Doing analysis at TEMP = 61.757820 and TNOM = 27.000000

Using KLU as Direct Linear Solver
 Reference value :  9.53140e-09
 Reference value :  3.86858e-08
 Reference value :  6.78358e-08
 Reference value :  9.61458e-08
 Reference value :  1.24544e-07
 Reference value :  1.51814e-07
 Reference value :  1.79429e-07
 Reference value :  2.09181e-07
 Reference value :  2.37931e-07
 Reference value :  2.65546e-07
 Reference value :  2.91719e-07
 Reference value :  3.18074e-07
No. of Data Rows : 68034

  Measurements for Transient Analysis

tphl                =  3.86033e-10 targ=  2.83227e-08 trig=  2.79366e-08
tplh                =  1.77122e-09 targ=  1.07581e-07 trig=  1.05810e-07
i_vdd_avg           =  -1.75932e-06 from=  1.00000e-08 to=  3.30004e-07
power_avg_uw        =  2.85251e+00


Total analysis time (seconds) = 3.12367

Total elapsed time (seconds) = 3.289 

Total DRAM available = 16384.000 MB.
DRAM currently available =  215.891 MB.
Maximum ngspice program size =   25.938 MB.
Current ngspice program size =   25.938 MB.

