
Note: Compatibility modes selected: hs a


Circuit: SKY130 library cell inv_1 A_to_Y

option SCALE: Scale is set to 1e-06 for instance and model parameters
Doing analysis at TEMP = 27.130525 and TNOM = 27.000000

Using KLU as Direct Linear Solver
 Reference value :  1.04566e-07
No. of Data Rows : 68034

  Measurements for Transient Analysis

tphl                =  6.00026e-10 targ=  3.00094e-08 trig=  2.94094e-08
tplh                =  2.22568e-09 targ=  1.12454e-07 trig=  1.10228e-07
i_vdd_avg           =  -2.52785e-07 from=  1.00000e-08 to=  3.30005e-07
power_avg_uw        =  4.12975e-01


Total analysis time (seconds) = 0.331174

Total elapsed time (seconds) = 0.474 

Total DRAM available = 16384.000 MB.
DRAM currently available =  199.781 MB.
Maximum ngspice program size =   25.203 MB.
Current ngspice program size =   25.203 MB.

