
Note: Compatibility modes selected: hs a


Circuit: SKY130 library cell nand3_1 A_to_Y__B=1,C=1

option SCALE: Scale is set to 1e-06 for instance and model parameters
Doing analysis at TEMP = 21.219122 and TNOM = 27.000000

Using KLU as Direct Linear Solver
 Reference value :  2.96175e-08
 Reference value :  1.17063e-07
 Reference value :  2.17035e-07
 Reference value :  3.18743e-07
No. of Data Rows : 68034

  Measurements for Transient Analysis

tphl                =  2.36085e-09 targ=  2.93048e-08 trig=  2.69439e-08
tplh                =  3.07564e-09 targ=  1.05907e-07 trig=  1.02832e-07
i_vdd_avg           =  -1.83599e-06 from=  1.00000e-08 to=  3.30003e-07
power_avg_uw        =  3.12857e+00


Total analysis time (seconds) = 0.915049

Total elapsed time (seconds) = 1.077 

Total DRAM available = 16384.000 MB.
DRAM currently available =  176.766 MB.
Maximum ngspice program size =   25.844 MB.
Current ngspice program size =   25.844 MB.

