
Note: Compatibility modes selected: hs a


Circuit: SKY130 library cell nand2_1 A_to_Y__B=1

option SCALE: Scale is set to 1e-06 for instance and model parameters
Doing analysis at TEMP = 15.908690 and TNOM = 27.000000

Using KLU as Direct Linear Solver
 Reference value :  6.01783e-08
 Reference value :  2.19798e-07
No. of Data Rows : 68032

  Measurements for Transient Analysis

tphl                =  9.27697e-10 targ=  2.89106e-08 trig=  2.79829e-08
tplh                =  2.44260e-09 targ=  1.08391e-07 trig=  1.05949e-07
i_vdd_avg           =  -1.76761e-06 from=  1.00000e-08 to=  3.30004e-07
power_avg_uw        =  3.31780e+00


Total analysis time (seconds) = 0.541386

Total elapsed time (seconds) = 0.684 

Total DRAM available = 16384.000 MB.
DRAM currently available =  101.219 MB.
Maximum ngspice program size =   25.781 MB.
Current ngspice program size =   25.781 MB.

