
Note: Compatibility modes selected: hs a


Circuit: SKY130 library cell oai21_4 A1_to_Y__A2=0,B1=1

option SCALE: Scale is set to 1e-06 for instance and model parameters
Doing analysis at TEMP = -9.495968 and TNOM = 27.000000

Using KLU as Direct Linear Solver
 Reference value :  7.04640e-09
 Reference value :  3.56045e-08
 Reference value :  6.44845e-08
 Reference value :  9.33145e-08
 Reference value :  1.21817e-07
 Reference value :  1.50787e-07
 Reference value :  1.79017e-07
 Reference value :  2.06380e-07
 Reference value :  2.34480e-07
 Reference value :  2.62135e-07
 Reference value :  2.89707e-07
 Reference value :  3.16887e-07
No. of Data Rows : 68030

  Measurements for Transient Analysis

tphl                =  5.15180e-11 targ=  2.91375e-08 trig=  2.90860e-08
tplh                =  2.17413e-09 targ=  1.11432e-07 trig=  1.09258e-07
i_vdd_avg           =  -1.19728e-06 from=  1.00000e-08 to=  3.30002e-07
power_avg_uw        =  2.00263e+00


Total analysis time (seconds) = 3.04331

Total elapsed time (seconds) = 3.232 

Total DRAM available = 16384.000 MB.
DRAM currently available =  131.406 MB.
Maximum ngspice program size =   29.250 MB.
Current ngspice program size =   29.250 MB.

