
Note: Compatibility modes selected: hs a


Circuit: SKY130 library cell xor2_4 A_to_X__B=0

option SCALE: Scale is set to 1e-06 for instance and model parameters
Doing analysis at TEMP = -3.669888 and TNOM = 27.000000

Using KLU as Direct Linear Solver
 Reference value :  3.27640e-09
 Reference value :  2.01664e-08
 Reference value :  3.76140e-08
 Reference value :  5.51240e-08
 Reference value :  7.25640e-08
 Reference value :  8.96390e-08
 Reference value :  1.07114e-07
 Reference value :  1.24361e-07
 Reference value :  1.42376e-07
 Reference value :  1.59796e-07
 Reference value :  1.78381e-07
 Reference value :  1.95639e-07
 Reference value :  2.14124e-07
 Reference value :  2.31694e-07
 Reference value :  2.49909e-07
 Reference value :  2.66359e-07
 Reference value :  2.83971e-07
 Reference value :  3.01561e-07
 Reference value :  3.19726e-07
 Reference value :  3.37156e-07
No. of Data Rows : 68030

  Measurements for Transient Analysis

tplh                =  -4.49763e-10 targ=  2.78210e-08 trig=  2.82708e-08
tphl                =  1.04277e-09 targ=  1.07855e-07 trig=  1.06812e-07
i_vdd_avg           =  -6.98043e-07 from=  1.00000e-08 to=  3.30001e-07
power_avg_uw        =  1.20093e+00


Total analysis time (seconds) = 4.87833

Total elapsed time (seconds) = 5.080 

Total DRAM available = 16384.000 MB.
DRAM currently available =  123.109 MB.
Maximum ngspice program size =   28.391 MB.
Current ngspice program size =   28.391 MB.

