
Note: Compatibility modes selected: hs a


Circuit: SKY130 library cell nand3_1 A_to_Y__B=1,C=1

option SCALE: Scale is set to 1e-06 for instance and model parameters
Doing analysis at TEMP = 11.711919 and TNOM = 27.000000

Using KLU as Direct Linear Solver
 Reference value :  3.56985e-08
 Reference value :  1.29320e-07
 Reference value :  2.20334e-07
 Reference value :  3.14570e-07
No. of Data Rows : 68032

  Measurements for Transient Analysis

tphl                =  1.14504e-09 targ=  2.69005e-08 trig=  2.57555e-08
tplh                =  1.70995e-09 targ=  1.00976e-07 trig=  9.92665e-08
i_vdd_avg           =  -1.92352e-06 from=  1.00000e-08 to=  3.30005e-07
power_avg_uw        =  3.59658e+00


Total analysis time (seconds) = 0.940792

Total elapsed time (seconds) = 1.102 

Total DRAM available = 16384.000 MB.
DRAM currently available =  133.422 MB.
Maximum ngspice program size =   26.078 MB.
Current ngspice program size =   26.078 MB.

