
Note: Compatibility modes selected: hs a


Circuit: SKY130 library cell nand3_4 A_to_Y__B=1,C=1

option SCALE: Scale is set to 1e-06 for instance and model parameters
Doing analysis at TEMP = 40.229710 and TNOM = 27.000000

Using KLU as Direct Linear Solver
 Reference value :  8.58640e-09
 Reference value :  3.48468e-08
 Reference value :  6.26068e-08
 Reference value :  8.91968e-08
 Reference value :  1.16716e-07
 Reference value :  1.44191e-07
 Reference value :  1.71911e-07
 Reference value :  1.99897e-07
 Reference value :  2.27907e-07
 Reference value :  2.56097e-07
 Reference value :  2.84126e-07
 Reference value :  3.12491e-07
No. of Data Rows : 68032

  Measurements for Transient Analysis

tphl                =  7.54792e-11 targ=  2.87751e-08 trig=  2.86997e-08
tplh                =  1.37132e-09 targ=  1.09470e-07 trig=  1.08099e-07
i_vdd_avg           =  -2.73062e-06 from=  1.00000e-08 to=  3.30001e-07
power_avg_uw        =  5.02617e+00


Total analysis time (seconds) = 3.14216

Total elapsed time (seconds) = 3.312 

Total DRAM available = 16384.000 MB.
DRAM currently available =  176.062 MB.
Maximum ngspice program size =   24.969 MB.
Current ngspice program size =   24.969 MB.

