
Note: Compatibility modes selected: hs a


Circuit: SKY130 library cell nand2_4 A_to_Y__B=1

option SCALE: Scale is set to 1e-06 for instance and model parameters
Doing analysis at TEMP = 91.724015 and TNOM = 27.000000

Using KLU as Direct Linear Solver
 Reference value :  1.49114e-08
 Reference value :  5.80989e-08
 Reference value :  1.06740e-07
 Reference value :  1.54030e-07
 Reference value :  1.99194e-07
 Reference value :  2.42984e-07
 Reference value :  2.88315e-07
 Reference value :  3.33315e-07
No. of Data Rows : 68030

  Measurements for Transient Analysis

tphl                =  9.22246e-10 targ=  2.66455e-08 trig=  2.57232e-08
tplh                =  1.17700e-09 targ=  1.00347e-07 trig=  9.91696e-08
i_vdd_avg           =  -2.32733e-06 from=  1.00000e-08 to=  3.30000e-07
power_avg_uw        =  4.54265e+00


Total analysis time (seconds) = 1.88852

Total elapsed time (seconds) = 2.051 

Total DRAM available = 16384.000 MB.
DRAM currently available =  117.547 MB.
Maximum ngspice program size =   28.672 MB.
Current ngspice program size =   28.672 MB.

