
Note: Compatibility modes selected: hs a


Circuit: SKY130 library cell aoi21_4 A1_to_Y__A2=1,B1=0

option SCALE: Scale is set to 1e-06 for instance and model parameters
Doing analysis at TEMP = 103.532100 and TNOM = 27.000000

Using KLU as Direct Linear Solver
 Reference value :  7.93140e-09
 Reference value :  3.60409e-08
 Reference value :  6.48709e-08
 Reference value :  9.31709e-08
 Reference value :  1.20204e-07
 Reference value :  1.46549e-07
 Reference value :  1.72719e-07
 Reference value :  2.01181e-07
 Reference value :  2.29116e-07
 Reference value :  2.58611e-07
 Reference value :  2.86469e-07
 Reference value :  3.12799e-07
No. of Data Rows : 68034

  Measurements for Transient Analysis

tphl                =  1.01235e-09 targ=  2.83890e-08 trig=  2.73767e-08
tplh                =  1.58870e-09 targ=  1.05719e-07 trig=  1.04130e-07
i_vdd_avg           =  -1.60023e-06 from=  1.00000e-08 to=  3.30004e-07
power_avg_uw        =  3.03035e+00


Total analysis time (seconds) = 3.11466

Total elapsed time (seconds) = 3.287 

Total DRAM available = 16384.000 MB.
DRAM currently available =  111.078 MB.
Maximum ngspice program size =   25.812 MB.
Current ngspice program size =   25.812 MB.

