
Note: Compatibility modes selected: hs a


Circuit: SKY130 library cell nand3_1 A_to_Y__B=1,C=1

option SCALE: Scale is set to 1e-06 for instance and model parameters
Doing analysis at TEMP = 46.681644 and TNOM = 27.000000

Using KLU as Direct Linear Solver
 Reference value :  3.03162e-08
 Reference value :  1.30500e-07
 Reference value :  2.29081e-07
 Reference value :  3.31400e-07
No. of Data Rows : 68034

  Measurements for Transient Analysis

tphl                =  6.29952e-10 targ=  2.55718e-08 trig=  2.49419e-08
tplh                =  8.58440e-10 targ=  9.76840e-08 trig=  9.68256e-08
i_vdd_avg           =  -1.14507e-06 from=  1.00000e-08 to=  3.30005e-07
power_avg_uw        =  2.23152e+00


Total analysis time (seconds) = 0.877782

Total elapsed time (seconds) = 1.051 

Total DRAM available = 16384.000 MB.
DRAM currently available =  176.766 MB.
Maximum ngspice program size =   26.734 MB.
Current ngspice program size =   26.734 MB.

