
Note: Compatibility modes selected: hs a


Circuit: SKY130 library cell nor2_1 A_to_Y__B=0

option SCALE: Scale is set to 1e-06 for instance and model parameters
Doing analysis at TEMP = 117.538650 and TNOM = 27.000000

Using KLU as Direct Linear Solver
 Reference value :  4.90238e-08
 Reference value :  1.98394e-07
No. of Data Rows : 68030

  Measurements for Transient Analysis

tphl                =  1.04901e-09 targ=  3.07747e-08 trig=  2.97256e-08
tplh                =  3.45192e-09 targ=  1.14629e-07 trig=  1.11177e-07
i_vdd_avg           =  -2.65977e-06 from=  1.00000e-08 to=  3.30000e-07
power_avg_uw        =  4.93580e+00


Total analysis time (seconds) = 0.585481

Total elapsed time (seconds) = 0.742 

Total DRAM available = 16384.000 MB.
DRAM currently available =   98.688 MB.
Maximum ngspice program size =   26.500 MB.
Current ngspice program size =   26.500 MB.

