
Note: Compatibility modes selected: hs a


Circuit: SKY130 library cell aoi21_1 A1_to_Y__A2=1,B1=0

option SCALE: Scale is set to 1e-06 for instance and model parameters
Doing analysis at TEMP = 19.351136 and TNOM = 27.000000

Using KLU as Direct Linear Solver
 Reference value :  3.69979e-08
 Reference value :  1.38643e-07
 Reference value :  2.44008e-07
No. of Data Rows : 68032

  Measurements for Transient Analysis

tphl                =  1.33700e-09 targ=  2.76672e-08 trig=  2.63302e-08
tplh                =  2.73867e-09 targ=  1.03729e-07 trig=  1.00991e-07
i_vdd_avg           =  -1.54502e-06 from=  1.00000e-08 to=  3.30003e-07
power_avg_uw        =  2.89164e+00


Total analysis time (seconds) = 0.828845

Total elapsed time (seconds) = 0.991 

Total DRAM available = 16384.000 MB.
DRAM currently available =  150.328 MB.
Maximum ngspice program size =   25.844 MB.
Current ngspice program size =   25.844 MB.

