
Note: Compatibility modes selected: hs a


Circuit: SKY130 library cell aoi21_1 A1_to_Y__A2=1,B1=0

option SCALE: Scale is set to 1e-06 for instance and model parameters
Doing analysis at TEMP = 103.004680 and TNOM = 27.000000

Using KLU as Direct Linear Solver
 Reference value :  3.30501e-08
 Reference value :  1.33243e-07
 Reference value :  2.33335e-07
 Reference value :  3.25063e-07
No. of Data Rows : 68034

  Measurements for Transient Analysis

tphl                =  2.77317e-09 targ=  2.97670e-08 trig=  2.69938e-08
tplh                =  4.32496e-09 targ=  1.07306e-07 trig=  1.02981e-07
i_vdd_avg           =  -1.99049e-06 from=  1.00000e-08 to=  3.30003e-07
power_avg_uw        =  3.62482e+00


Total analysis time (seconds) = 0.923455

Total elapsed time (seconds) = 1.088 

Total DRAM available = 16384.000 MB.
DRAM currently available =  129.766 MB.
Maximum ngspice program size =   25.859 MB.
Current ngspice program size =   25.859 MB.

