
Note: Compatibility modes selected: hs a


Circuit: SKY130 library cell nand2_1 A_to_Y__B=1

option SCALE: Scale is set to 1e-06 for instance and model parameters
Doing analysis at TEMP = 110.121500 and TNOM = 27.000000

Using KLU as Direct Linear Solver
 Reference value :  5.10745e-08
 Reference value :  2.14984e-07
No. of Data Rows : 68030

  Measurements for Transient Analysis

tphl                =  4.97564e-10 targ=  2.91761e-08 trig=  2.86785e-08
tplh                =  1.25089e-09 targ=  1.09286e-07 trig=  1.08035e-07
i_vdd_avg           =  -4.19577e-07 from=  1.00000e-08 to=  3.30001e-07
power_avg_uw        =  7.42236e-01


Total analysis time (seconds) = 0.525751

Total elapsed time (seconds) = 0.682 

Total DRAM available = 16384.000 MB.
DRAM currently available =  111.547 MB.
Maximum ngspice program size =   25.938 MB.
Current ngspice program size =   25.938 MB.

