
Note: Compatibility modes selected: hs a


Circuit: SKY130 library cell nor2_4 A_to_Y__B=0

option SCALE: Scale is set to 1e-06 for instance and model parameters
Doing analysis at TEMP = 24.435081 and TNOM = 27.000000

Using KLU as Direct Linear Solver
 Reference value :  1.50664e-08
 Reference value :  5.64353e-08
 Reference value :  1.02260e-07
 Reference value :  1.44043e-07
 Reference value :  1.91208e-07
 Reference value :  2.37020e-07
 Reference value :  2.77768e-07
 Reference value :  3.22673e-07
No. of Data Rows : 68034

  Measurements for Transient Analysis

tphl                =  1.30597e-09 targ=  2.91074e-08 trig=  2.78014e-08
tplh                =  2.82396e-09 targ=  1.08228e-07 trig=  1.05404e-07
i_vdd_avg           =  -1.81927e-06 from=  1.00000e-08 to=  3.30003e-07
power_avg_uw        =  3.18445e+00


Total analysis time (seconds) = 1.96839

Total elapsed time (seconds) = 2.125 

Total DRAM available = 16384.000 MB.
DRAM currently available =  103.453 MB.
Maximum ngspice program size =   27.078 MB.
Current ngspice program size =   27.078 MB.

