
Note: Compatibility modes selected: hs a


Circuit: SKY130 library cell nand3_4 A_to_Y__B=1,C=1

option SCALE: Scale is set to 1e-06 for instance and model parameters
Doing analysis at TEMP = -11.201518 and TNOM = 27.000000

Using KLU as Direct Linear Solver
 Reference value :  7.97140e-09
 Reference value :  3.61013e-08
 Reference value :  6.48463e-08
 Reference value :  9.16313e-08
 Reference value :  1.19135e-07
 Reference value :  1.44420e-07
 Reference value :  1.71170e-07
 Reference value :  1.99036e-07
 Reference value :  2.27416e-07
 Reference value :  2.55931e-07
 Reference value :  2.84810e-07
 Reference value :  3.12190e-07
 Reference value :  3.39670e-07
No. of Data Rows : 68032

  Measurements for Transient Analysis

tphl                =  6.28235e-10 targ=  2.63201e-08 trig=  2.56919e-08
tplh                =  1.17407e-09 targ=  1.00250e-07 trig=  9.90757e-08
i_vdd_avg           =  -1.05632e-06 from=  1.00000e-08 to=  3.30000e-07
power_avg_uw        =  1.76304e+00


Total analysis time (seconds) = 3.16817

Total elapsed time (seconds) = 3.344 

Total DRAM available = 16384.000 MB.
DRAM currently available =   85.484 MB.
Maximum ngspice program size =   28.500 MB.
Current ngspice program size =   28.500 MB.

