
Note: No compatibility mode selected!


Circuit: GF180MCU library cell nand3_4 A1_to_ZN__A2=1,A3=1

Doing analysis at TEMP = 25.000000 and TNOM = 27.000000

Using SPARSE 1.3 as Direct Linear Solver

Initial Transient Solution
--------------------------

Node                                   Voltage
----                                   -------
vdd                                        1.8
a1                                           0
a2                                         1.8
a3                                         1.8
xu1.net_1_3                        1.86624e-10
xu1.net_0                          3.73248e-10
xu1.net_1_2                        1.86624e-10
xu1.net_1_1                        1.86624e-10
xu1.net_1_0                        1.86624e-10
xu1.net_0_0                        3.73248e-10
zn                                         1.8
vfix_a3#branch                               0
vfix_a2#branch                               0
vin#branch                                   0
vdd#branch                         -7.3721e-12

 Reference value :  4.00352e-08
 Reference value :  9.41702e-08
 Reference value :  1.49143e-07
 Reference value :  2.03755e-07
 Reference value :  2.58088e-07
 Reference value :  3.13613e-07
No. of Data Rows : 68034

  Measurements for Transient Analysis

tphl                =  2.78179e-10 targ=  2.43295e-08 trig=  2.40514e-08
tplh                =  3.23895e-10 targ=  9.44779e-08 trig=  9.41541e-08
i_vdd_avg           =  -3.03434e-07 from=  1.00000e-08 to=  3.30003e-07
power_avg_uw        =  5.46182e-01


Total analysis time (seconds) = 1.5658

Total elapsed time (seconds) = 1.614 

Total DRAM available = 16384.000 MB.
DRAM currently available =  147.938 MB.
Maximum ngspice program size =   13.422 MB.
Current ngspice program size =   12.844 MB.

