
Note: No compatibility mode selected!


Circuit: GF180MCU library cell nand2_4 A1_to_ZN__A2=1

Doing analysis at TEMP = 25.000000 and TNOM = 27.000000

Using SPARSE 1.3 as Direct Linear Solver

Initial Transient Solution
--------------------------

Node                                   Voltage
----                                   -------
vdd                                        1.8
a1                                           0
a2                                         1.8
xu1.net_0_0                        1.86624e-10
zn                                         1.8
xu1.net_0_1                        1.86624e-10
xu1.net_0_2                        1.86624e-10
xu1.net_0_3                        1.86624e-10
vfix_a2#branch                               0
vin#branch                                   0
vdd#branch                         -7.3721e-12

 Reference value :  6.05152e-08
 Reference value :  1.38263e-07
 Reference value :  2.16520e-07
 Reference value :  2.95903e-07
No. of Data Rows : 68034

  Measurements for Transient Analysis

tphl                =  2.00929e-10 targ=  2.42523e-08 trig=  2.40514e-08
tplh                =  2.74642e-10 targ=  9.44287e-08 trig=  9.41541e-08
i_vdd_avg           =  -2.91436e-07 from=  1.00000e-08 to=  3.30003e-07
power_avg_uw        =  5.24584e-01


Total analysis time (seconds) = 1.0842

Total elapsed time (seconds) = 1.152 

Total DRAM available = 16384.000 MB.
DRAM currently available =  123.766 MB.
Maximum ngspice program size =   14.531 MB.
Current ngspice program size =   14.531 MB.

