
Note: No compatibility mode selected!


Circuit: GF180MCU library cell nand2_1 A1_to_ZN__A2=1

Doing analysis at TEMP = 25.000000 and TNOM = 27.000000

Using SPARSE 1.3 as Direct Linear Solver

Initial Transient Solution
--------------------------

Node                                   Voltage
----                                   -------
vdd                                        1.8
a1                                           0
a2                                         1.8
xu1.net_0                          1.86624e-10
zn                                         1.8
vfix_a2#branch                               0
vin#branch                                   0
vdd#branch                        -1.84302e-12

 Reference value :  1.83248e-07
No. of Data Rows : 68034

  Measurements for Transient Analysis

tphl                =  5.17521e-10 targ=  2.45689e-08 trig=  2.40514e-08
tplh                =  7.38459e-10 targ=  9.48925e-08 trig=  9.41541e-08
i_vdd_avg           =  -2.16759e-07 from=  1.00000e-08 to=  3.30003e-07
power_avg_uw        =  3.90166e-01


Total analysis time (seconds) = 0.352263

Total elapsed time (seconds) = 0.458 

Total DRAM available = 16384.000 MB.
DRAM currently available =  104.875 MB.
Maximum ngspice program size =   14.500 MB.
Current ngspice program size =   14.500 MB.

