
Note: No compatibility mode selected!


Circuit: GF180MCU library cell mux2_4 I0_to_Z__I1=0,S=0

Doing analysis at TEMP = 25.000000 and TNOM = 27.000000

Using SPARSE 1.3 as Direct Linear Solver

Initial Transient Solution
--------------------------

Node                                   Voltage
----                                   -------
vdd                                        1.8
i0                                           0
i1                                           0
s                                            0
xu1.int04                                  1.8
z                                  1.07301e-08
xu1.net_1                           0.00821944
xu1.net_3                              1.20894
xu1.sel1_n                                 1.8
xu1.net_0                                  1.8
xu1.net_2                                  1.8
vfix_s#branch                                0
vfix_i1#branch                               0
vin#branch                                   0
vdd#branch                         -1.5544e-11

 Reference value :  5.52302e-08
 Reference value :  1.25563e-07
 Reference value :  1.96155e-07
 Reference value :  2.66838e-07
 Reference value :  3.37303e-07
No. of Data Rows : 68034

  Measurements for Transient Analysis

tplh                =  8.66053e-10 targ=  2.49174e-08 trig=  2.40514e-08
tphl                =  1.48480e-09 targ=  9.56389e-08 trig=  9.41541e-08
i_vdd_avg           =  -4.34874e-07 from=  1.00000e-08 to=  3.30003e-07
power_avg_uw        =  7.82774e-01


Total analysis time (seconds) = 1.22302

Total elapsed time (seconds) = 1.267 

Total DRAM available = 16384.000 MB.
DRAM currently available =  128.672 MB.
Maximum ngspice program size =   13.422 MB.
Current ngspice program size =   13.422 MB.

