
Note: No compatibility mode selected!


Circuit: GF180MCU library cell oai21_4 A1_to_ZN__A2=0,B=1

Doing analysis at TEMP = 25.000000 and TNOM = 27.000000

Using SPARSE 1.3 as Direct Linear Solver

Initial Transient Solution
--------------------------

Node                                   Voltage
----                                   -------
vdd                                        1.8
a1                                           0
a2                                           0
b                                          1.8
zn                                         1.8
xu1.net_0                          3.73248e-10
xu1.net_1_0                                1.8
xu1.net_1_1                                1.8
xu1.net_1_2                                1.8
xu1.net_1_3                                1.8
vfix_b#branch                                0
vfix_a2#branch                               0
vin#branch                                   0
vdd#branch                        -1.47442e-11

 Reference value :  3.94452e-08
 Reference value :  9.38302e-08
 Reference value :  1.48653e-07
 Reference value :  2.03410e-07
 Reference value :  2.57938e-07
 Reference value :  3.13248e-07
No. of Data Rows : 68034

  Measurements for Transient Analysis

tphl                =  2.09101e-10 targ=  2.42605e-08 trig=  2.40514e-08
tplh                =  5.88299e-10 targ=  9.47423e-08 trig=  9.41541e-08
i_vdd_avg           =  -3.08810e-07 from=  1.00000e-08 to=  3.30003e-07
power_avg_uw        =  5.55857e-01


Total analysis time (seconds) = 1.55702

Total elapsed time (seconds) = 1.617 

Total DRAM available = 16384.000 MB.
DRAM currently available =  132.641 MB.
Maximum ngspice program size =   16.250 MB.
Current ngspice program size =   16.250 MB.

