
Note: No compatibility mode selected!


Circuit: GF180MCU library cell inv_1 I_to_ZN

Doing analysis at TEMP = 25.000000 and TNOM = 27.000000

Using SPARSE 1.3 as Direct Linear Solver

Initial Transient Solution
--------------------------

Node                                   Voltage
----                                   -------
vdd                                        1.8
i                                            0
zn                                         1.8
vin#branch                                   0
vdd#branch                        -1.84302e-12

 Reference value :  2.97093e-07
No. of Data Rows : 68034

  Measurements for Transient Analysis

tphl                =  2.94824e-10 targ=  2.43462e-08 trig=  2.40514e-08
tplh                =  6.65107e-10 targ=  9.48192e-08 trig=  9.41541e-08
i_vdd_avg           =  -2.11121e-07 from=  1.00000e-08 to=  3.30003e-07
power_avg_uw        =  3.80018e-01


Total analysis time (seconds) = 0.209859

Total elapsed time (seconds) = 0.316 

Total DRAM available = 16384.000 MB.
DRAM currently available =  104.875 MB.
Maximum ngspice program size =   15.422 MB.
Current ngspice program size =   15.422 MB.

