
Note: No compatibility mode selected!


Circuit: GF180MCU library cell aoi21_4 A1_to_ZN__A2=1,B=0

Doing analysis at TEMP = 25.000000 and TNOM = 27.000000

Using SPARSE 1.3 as Direct Linear Solver

Initial Transient Solution
--------------------------

Node                                   Voltage
----                                   -------
vdd                                        1.8
a1                                           0
a2                                         1.8
b                                            0
xu1.net_0_0                        1.86624e-10
zn                                         1.8
xu1.net_0_1                        1.86624e-10
xu1.net_0_2                        1.86624e-10
xu1.net_0_3                        1.86624e-10
xu1.net_1                                  1.8
vfix_b#branch                                0
vfix_a2#branch                               0
vin#branch                                   0
vdd#branch                        -1.47849e-11

 Reference value :  3.98802e-08
 Reference value :  9.39602e-08
 Reference value :  1.46838e-07
 Reference value :  2.00695e-07
 Reference value :  2.54733e-07
 Reference value :  3.08798e-07
No. of Data Rows : 68034

  Measurements for Transient Analysis

tphl                =  2.12626e-10 targ=  2.42640e-08 trig=  2.40514e-08
tplh                =  5.33879e-10 targ=  9.46879e-08 trig=  9.41541e-08
i_vdd_avg           =  -3.10076e-07 from=  1.00000e-08 to=  3.30003e-07
power_avg_uw        =  5.58137e-01


Total analysis time (seconds) = 1.58762

Total elapsed time (seconds) = 1.639 

Total DRAM available = 16384.000 MB.
DRAM currently available =  127.625 MB.
Maximum ngspice program size =   14.281 MB.
Current ngspice program size =   14.281 MB.

