
Note: No compatibility mode selected!


Circuit: GF180MCU library cell nor2_4 A1_to_ZN__A2=0

Doing analysis at TEMP = 25.000000 and TNOM = 27.000000

Using SPARSE 1.3 as Direct Linear Solver

Initial Transient Solution
--------------------------

Node                                   Voltage
----                                   -------
vdd                                        1.8
a1                                           0
a2                                           0
zn                                         1.8
xu1.net_0_0                                1.8
xu1.net_0_1                                1.8
xu1.net_0_2                                1.8
xu1.net_0_3                                1.8
vfix_a2#branch                               0
vin#branch                                   0
vdd#branch                        -1.47735e-11

 Reference value :  6.09802e-08
 Reference value :  1.39273e-07
 Reference value :  2.15960e-07
 Reference value :  2.94698e-07
No. of Data Rows : 68034

  Measurements for Transient Analysis

tphl                =  1.56558e-10 targ=  2.42079e-08 trig=  2.40514e-08
tplh                =  4.63976e-10 targ=  9.46180e-08 trig=  9.41541e-08
i_vdd_avg           =  -2.75013e-07 from=  1.00000e-08 to=  3.30003e-07
power_avg_uw        =  4.95024e-01


Total analysis time (seconds) = 1.09208

Total elapsed time (seconds) = 1.160 

Total DRAM available = 16384.000 MB.
DRAM currently available =  123.766 MB.
Maximum ngspice program size =   15.016 MB.
Current ngspice program size =   15.016 MB.

