
Note: No compatibility mode selected!


Circuit: GF180MCU library cell oai21_1 A1_to_ZN__A2=0,B=1

Doing analysis at TEMP = 25.000000 and TNOM = 27.000000

Using SPARSE 1.3 as Direct Linear Solver

Initial Transient Solution
--------------------------

Node                                   Voltage
----                                   -------
vdd                                        1.8
a1                                           0
a2                                           0
b                                          1.8
zn                                         1.8
xu1.net_0                          3.73248e-10
xu1.net_1                                  1.8
vfix_b#branch                                0
vfix_a2#branch                               0
vin#branch                                   0
vdd#branch                        -3.68605e-12

 Reference value :  1.44113e-07
 Reference value :  3.29868e-07
No. of Data Rows : 68034

  Measurements for Transient Analysis

tphl                =  5.31869e-10 targ=  2.45832e-08 trig=  2.40514e-08
tplh                =  1.42823e-09 targ=  9.55823e-08 trig=  9.41541e-08
i_vdd_avg           =  -2.23064e-07 from=  1.00000e-08 to=  3.30003e-07
power_avg_uw        =  4.01514e-01


Total analysis time (seconds) = 0.45957

Total elapsed time (seconds) = 0.509 

Total DRAM available = 16384.000 MB.
DRAM currently available =  104.875 MB.
Maximum ngspice program size =   15.125 MB.
Current ngspice program size =   15.125 MB.

