
Note: No compatibility mode selected!


Circuit: GF180MCU library cell nand3_1 A1_to_ZN__A2=1,A3=1

Doing analysis at TEMP = 25.000000 and TNOM = 27.000000

Using SPARSE 1.3 as Direct Linear Solver

Initial Transient Solution
--------------------------

Node                                   Voltage
----                                   -------
vdd                                        1.8
a1                                           0
a2                                         1.8
a3                                         1.8
xu1.net_1                          1.86624e-10
xu1.net_0                          3.73248e-10
zn                                         1.8
vfix_a3#branch                               0
vfix_a2#branch                               0
vin#branch                                   0
vdd#branch                        -1.84302e-12

 Reference value :  1.47113e-07
 Reference value :  3.35643e-07
No. of Data Rows : 68034

  Measurements for Transient Analysis

tphl                =  7.36843e-10 targ=  2.47882e-08 trig=  2.40514e-08
tplh                =  8.57346e-10 targ=  9.50114e-08 trig=  9.41541e-08
i_vdd_avg           =  -2.19520e-07 from=  1.00000e-08 to=  3.30003e-07
power_avg_uw        =  3.95137e-01


Total analysis time (seconds) = 0.454189

Total elapsed time (seconds) = 0.501 

Total DRAM available = 16384.000 MB.
DRAM currently available =  151.562 MB.
Maximum ngspice program size =   13.188 MB.
Current ngspice program size =   13.125 MB.

