
Note: No compatibility mode selected!


Circuit: GF180MCU library cell xor2_4 A1_to_Z__A2=0

Doing analysis at TEMP = 25.000000 and TNOM = 27.000000

Using SPARSE 1.3 as Direct Linear Solver

Initial Transient Solution
--------------------------

Node                                   Voltage
----                                   -------
vdd                                        1.8
a1                                           0
a2                                           0
xu1.net_2                            0.0222657
xu1.i                                      1.8
xu1.net_0                          3.73248e-10
xu1.z_neg                                  1.8
z                                  1.07301e-08
xu1.net_1                                  1.8
vfix_a2#branch                               0
vin#branch                                   0
vdd#branch                        -1.31738e-11

 Reference value :  5.30702e-08
 Reference value :  1.23223e-07
 Reference value :  1.92175e-07
 Reference value :  2.62378e-07
 Reference value :  3.29513e-07
No. of Data Rows : 68034

  Measurements for Transient Analysis

tplh                =  7.67275e-10 targ=  2.48186e-08 trig=  2.40514e-08
tphl                =  1.44333e-09 targ=  9.55974e-08 trig=  9.41541e-08
i_vdd_avg           =  -4.10181e-07 from=  1.00000e-08 to=  3.30003e-07
power_avg_uw        =  7.38326e-01


Total analysis time (seconds) = 1.23342

Total elapsed time (seconds) = 1.302 

Total DRAM available = 16384.000 MB.
DRAM currently available =  123.766 MB.
Maximum ngspice program size =   14.328 MB.
Current ngspice program size =   14.328 MB.

