
Note: No compatibility mode selected!


Circuit: NOR2 seed characterization sample 4302031

Doing analysis at TEMP = 7.597510 and TNOM = 27.000000

Using SPARSE 1.3 as Direct Linear Solver

Initial Transient Solution
--------------------------

Node                                   Voltage
----                                   -------
vdd                                    1.90019
in                                           0
out                                    1.90019
pmid                                   1.90019
vin#branch                                   0
vdd#branch                        -1.26167e-11

 Reference value :  4.01453e-08
 Reference value :  9.55611e-08
No. of Data Rows : 60044

  Measurements for Transient Analysis

tphl                =  1.09858e-10 targ=  2.30393e-09 trig=  2.19407e-09
tplh                =  3.36289e-10 targ=  2.29185e-08 trig=  2.25822e-08
i_vdd_avg           =  -6.02286e-06 from=  5.00000e-09 to=  1.10001e-07
power_avg_uw        =  1.14446e+01


Total analysis time (seconds) = 0.517845

Total elapsed time (seconds) = 0.594 

Total DRAM available = 16384.000 MB.
DRAM currently available =  123.219 MB.
Maximum ngspice program size =   12.562 MB.
Current ngspice program size =   11.938 MB.

