
Note: No compatibility mode selected!


Circuit: INV seed characterization sample 4302025

Doing analysis at TEMP = -4.870580 and TNOM = 27.000000

Using SPARSE 1.3 as Direct Linear Solver

Initial Transient Solution
--------------------------

Node                                   Voltage
----                                   -------
vdd                                     1.7719
in                                           0
out                                     1.7719
vin#branch                                   0
vdd#branch                        -2.92885e-12

 Reference value :  6.20845e-08
No. of Data Rows : 60047

  Measurements for Transient Analysis

tphl                =  4.68908e-11 targ=  2.12764e-09 trig=  2.08075e-09
tplh                =  6.05384e-11 targ=  2.23028e-08 trig=  2.22422e-08
i_vdd_avg           =  -8.60632e-07 from=  5.00000e-09 to=  1.10002e-07
power_avg_uw        =  1.52495e+00


Total analysis time (seconds) = 0.336731

Total elapsed time (seconds) = 0.413 

Total DRAM available = 16384.000 MB.
DRAM currently available =  127.797 MB.
Maximum ngspice program size =   12.562 MB.
Current ngspice program size =   11.766 MB.

