
Note: No compatibility mode selected!


Circuit: NOR2 seed characterization sample 4302047

Doing analysis at TEMP = 39.355700 and TNOM = 27.000000

Using SPARSE 1.3 as Direct Linear Solver

Initial Transient Solution
--------------------------

Node                                   Voltage
----                                   -------
vdd                                    1.72296
in                                           0
out                                    1.72296
pmid                                   1.72296
vin#branch                                   0
vdd#branch                        -7.33456e-11

 Reference value :  4.09319e-08
 Reference value :  9.85404e-08
No. of Data Rows : 60047

  Measurements for Transient Analysis

tphl                =  1.22421e-10 targ=  2.35714e-09 trig=  2.23472e-09
tplh                =  4.41795e-10 targ=  2.31460e-08 trig=  2.27042e-08
i_vdd_avg           =  -4.53942e-06 from=  5.00000e-09 to=  1.10002e-07
power_avg_uw        =  7.82124e+00


Total analysis time (seconds) = 0.505697

Total elapsed time (seconds) = 0.583 

Total DRAM available = 16384.000 MB.
DRAM currently available =  115.859 MB.
Maximum ngspice program size =   12.562 MB.
Current ngspice program size =   11.688 MB.

