
Note: No compatibility mode selected!


Circuit: NOR2 seed characterization sample 4302024

Doing analysis at TEMP = 56.812200 and TNOM = 27.000000

Using SPARSE 1.3 as Direct Linear Solver

Initial Transient Solution
--------------------------

Node                                   Voltage
----                                   -------
vdd                                    1.84061
in                                           0
out                                    1.84061
pmid                                   1.84061
vin#branch                                   0
vdd#branch                        -4.69323e-11

 Reference value :  4.13352e-08
 Reference value :  9.67111e-08
No. of Data Rows : 60044

  Measurements for Transient Analysis

tphl                =  2.05245e-10 targ=  2.32230e-09 trig=  2.11705e-09
tplh                =  8.70441e-10 targ=  2.32216e-08 trig=  2.23512e-08
i_vdd_avg           =  -3.80051e-06 from=  5.00000e-09 to=  1.10001e-07
power_avg_uw        =  6.99525e+00


Total analysis time (seconds) = 0.527256

Total elapsed time (seconds) = 0.604 

Total DRAM available = 16384.000 MB.
DRAM currently available =  125.609 MB.
Maximum ngspice program size =   12.562 MB.
Current ngspice program size =   12.016 MB.

