
Note: No compatibility mode selected!


Circuit: INV seed characterization sample 4302007

Doing analysis at TEMP = 39.512300 and TNOM = 27.000000

Using SPARSE 1.3 as Direct Linear Solver

Initial Transient Solution
--------------------------

Node                                   Voltage
----                                   -------
vdd                                    1.72869
in                                           0
out                                    1.72869
vin#branch                                   0
vdd#branch                        -2.95342e-11

 Reference value :  6.58244e-08
No. of Data Rows : 60044

  Measurements for Transient Analysis

tphl                =  1.55901e-10 targ=  2.18974e-09 trig=  2.03384e-09
tplh                =  1.58322e-10 targ=  2.22598e-08 trig=  2.21015e-08
i_vdd_avg           =  -5.08937e-06 from=  5.00000e-09 to=  1.10000e-07
power_avg_uw        =  8.79794e+00


Total analysis time (seconds) = 0.317368

Total elapsed time (seconds) = 0.393 

Total DRAM available = 16384.000 MB.
DRAM currently available =   97.406 MB.
Maximum ngspice program size =   12.562 MB.
Current ngspice program size =   11.906 MB.

