
Note: No compatibility mode selected!


Circuit: INV seed characterization sample 4302012

Doing analysis at TEMP = 0.445204 and TNOM = 27.000000

Using SPARSE 1.3 as Direct Linear Solver

Initial Transient Solution
--------------------------

Node                                   Voltage
----                                   -------
vdd                                    1.69704
in                                           0
out                                    1.69704
vin#branch                                   0
vdd#branch                        -3.61063e-12

 Reference value :  7.16238e-08
No. of Data Rows : 60047

  Measurements for Transient Analysis

tphl                =  2.13756e-10 targ=  2.44947e-09 trig=  2.23571e-09
tplh                =  2.86820e-10 targ=  2.29940e-08 trig=  2.27071e-08
i_vdd_avg           =  -5.37219e-06 from=  5.00000e-09 to=  1.10002e-07
power_avg_uw        =  9.11683e+00


Total analysis time (seconds) = 0.297427

Total elapsed time (seconds) = 0.371 

Total DRAM available = 16384.000 MB.
DRAM currently available =   93.375 MB.
Maximum ngspice program size =   12.562 MB.
Current ngspice program size =   11.906 MB.

