
Note: No compatibility mode selected!


Circuit: NOR2 seed characterization sample 4302003

Doing analysis at TEMP = 12.512300 and TNOM = 27.000000

Using SPARSE 1.3 as Direct Linear Solver

Initial Transient Solution
--------------------------

Node                                   Voltage
----                                   -------
vdd                                    1.62561
in                                           0
out                                    1.62561
pmid                                   1.62561
vin#branch                                   0
vdd#branch                        -6.11178e-12

 Reference value :  4.64538e-08
 Reference value :  1.07401e-07
No. of Data Rows : 60041

  Measurements for Transient Analysis

tphl                =  2.09508e-10 targ=  2.45689e-09 trig=  2.24738e-09
tplh                =  5.33621e-10 targ=  2.32758e-08 trig=  2.27421e-08
i_vdd_avg           =  -3.26420e-06 from=  5.00000e-09 to=  1.10001e-07
power_avg_uw        =  5.30631e+00


Total analysis time (seconds) = 0.477871

Total elapsed time (seconds) = 0.548 

Total DRAM available = 16384.000 MB.
DRAM currently available =  104.219 MB.
Maximum ngspice program size =   12.562 MB.
Current ngspice program size =   11.625 MB.

