
Note: No compatibility mode selected!


Circuit: NAND2 seed characterization sample 4302034

Doing analysis at TEMP = 9.776540 and TNOM = 27.000000

Using SPARSE 1.3 as Direct Linear Solver

Initial Transient Solution
--------------------------

Node                                   Voltage
----                                   -------
vdd                                     1.7598
in                                           0
out                                     1.7598
nmid                                 0.0495026
vin#branch                                   0
vdd#branch                        -2.55759e-12

 Reference value :  4.68329e-08
 Reference value :  1.07655e-07
No. of Data Rows : 60044

  Measurements for Transient Analysis

tphl                =  2.61947e-10 targ=  2.51189e-09 trig=  2.24995e-09
tplh                =  1.46420e-10 targ=  2.28963e-08 trig=  2.27498e-08
i_vdd_avg           =  -5.06426e-06 from=  5.00000e-09 to=  1.10001e-07
power_avg_uw        =  8.91208e+00


Total analysis time (seconds) = 0.47773

Total elapsed time (seconds) = 0.549 

Total DRAM available = 16384.000 MB.
DRAM currently available =  107.766 MB.
Maximum ngspice program size =   12.562 MB.
Current ngspice program size =   11.656 MB.

