
Note: No compatibility mode selected!


Circuit: NOR2 seed characterization sample 4302037

Doing analysis at TEMP = 46.661300 and TNOM = 27.000000

Using SPARSE 1.3 as Direct Linear Solver

Initial Transient Solution
--------------------------

Node                                   Voltage
----                                   -------
vdd                                    1.97466
in                                           0
out                                    1.97466
pmid                                   1.97466
vin#branch                                   0
vdd#branch                        -1.65422e-10

 Reference value :  4.24151e-08
 Reference value :  1.02221e-07
No. of Data Rows : 60044

  Measurements for Transient Analysis

tphl                =  6.63703e-11 targ=  2.23741e-09 trig=  2.17104e-09
tplh                =  2.68965e-10 targ=  2.27821e-08 trig=  2.25131e-08
i_vdd_avg           =  -3.96433e-06 from=  5.00000e-09 to=  1.10001e-07
power_avg_uw        =  7.82821e+00


Total analysis time (seconds) = 0.483196

Total elapsed time (seconds) = 0.559 

Total DRAM available = 16384.000 MB.
DRAM currently available =  119.141 MB.
Maximum ngspice program size =   12.562 MB.
Current ngspice program size =   11.688 MB.

