
Note: No compatibility mode selected!


Circuit: NOR2 seed characterization sample 4302048

Doing analysis at TEMP = -5.375570 and TNOM = 27.000000

Using SPARSE 1.3 as Direct Linear Solver

Initial Transient Solution
--------------------------

Node                                   Voltage
----                                   -------
vdd                                    1.76411
in                                           0
out                                    1.76411
pmid                                   1.76411
vin#branch                                   0
vdd#branch                        -4.97372e-12

 Reference value :  4.14770e-08
 Reference value :  9.91930e-08
No. of Data Rows : 60044

  Measurements for Transient Analysis

tphl                =  4.69222e-11 targ=  2.06693e-09 trig=  2.02000e-09
tplh                =  2.40731e-10 targ=  2.23007e-08 trig=  2.20600e-08
i_vdd_avg           =  -2.42155e-06 from=  5.00000e-09 to=  1.10001e-07
power_avg_uw        =  4.27188e+00


Total analysis time (seconds) = 0.503659

Total elapsed time (seconds) = 0.579 

Total DRAM available = 16384.000 MB.
DRAM currently available =  108.719 MB.
Maximum ngspice program size =   12.562 MB.
Current ngspice program size =   11.594 MB.

