
Note: No compatibility mode selected!


Circuit: NOR2 seed characterization sample 4104023

Doing analysis at TEMP = 32.389100 and TNOM = 27.000000

Using SPARSE 1.3 as Direct Linear Solver

Initial Transient Solution
--------------------------

Node                                   Voltage
----                                   -------
vdd                                    1.79747
in                                           0
out                                    1.79747
pmid                                   1.79747
vin#branch                                   0
vdd#branch                         -1.5462e-11

 Reference value :  4.62587e-08
 Reference value :  1.06230e-07
No. of Data Rows : 60044

  Measurements for Transient Analysis

tphl                =  2.25026e-10 targ=  2.36390e-09 trig=  2.13887e-09
tplh                =  8.50967e-10 targ=  2.32676e-08 trig=  2.24166e-08
i_vdd_avg           =  -5.53090e-06 from=  5.00000e-09 to=  1.10000e-07
power_avg_uw        =  9.94162e+00


Total analysis time (seconds) = 0.481305

Total elapsed time (seconds) = 0.551 

Total DRAM available = 16384.000 MB.
DRAM currently available =  252.109 MB.
Maximum ngspice program size =   12.562 MB.
Current ngspice program size =   11.906 MB.

