
Note: No compatibility mode selected!


Circuit: XOR2 seed characterization sample 4104016

Doing analysis at TEMP = 79.986300 and TNOM = 27.000000

Using SPARSE 1.3 as Direct Linear Solver

Initial Transient Solution
--------------------------

Node                                   Voltage
----                                   -------
vdd                                    1.75255
in                                           0
b                                      1.75255
abar                                   1.75255
bbar                               3.32192e-08
out                                    1.75255
vb#branch                                    0
vin#branch                         3.25738e-10
vdd#branch                        -5.85557e-10

 Reference value :  2.67903e-08
 Reference value :  6.19286e-08
 Reference value :  9.92766e-08
No. of Data Rows : 60044

  Measurements for Transient Analysis

tphl                =  2.76626e-10 targ=  2.29444e-09 trig=  2.01781e-09
tplh                =  2.50576e-10 targ=  2.23040e-08 trig=  2.20534e-08
i_vdd_avg           =  -5.55082e-06 from=  5.00000e-09 to=  1.10000e-07
power_avg_uw        =  9.72809e+00


Total analysis time (seconds) = 0.796313

Total elapsed time (seconds) = 0.866 

Total DRAM available = 16384.000 MB.
DRAM currently available =  282.062 MB.
Maximum ngspice program size =   12.578 MB.
Current ngspice program size =   11.875 MB.

