
Note: No compatibility mode selected!


Circuit: INV seed characterization sample 4104041

Doing analysis at TEMP = 53.598100 and TNOM = 27.000000

Using SPARSE 1.3 as Direct Linear Solver

Initial Transient Solution
--------------------------

Node                                   Voltage
----                                   -------
vdd                                    1.96145
in                                           0
out                                    1.96145
vin#branch                                   0
vdd#branch                        -9.20689e-11

 Reference value :  7.55286e-08
No. of Data Rows : 60041

  Measurements for Transient Analysis

tphl                =  1.06553e-10 targ=  2.25696e-09 trig=  2.15040e-09
tplh                =  1.46361e-10 targ=  2.25976e-08 trig=  2.24512e-08
i_vdd_avg           =  -2.74717e-06 from=  5.00000e-09 to=  1.10001e-07
power_avg_uw        =  5.38844e+00


Total analysis time (seconds) = 0.286018

Total elapsed time (seconds) = 0.354 

Total DRAM available = 16384.000 MB.
DRAM currently available =  240.141 MB.
Maximum ngspice program size =   12.562 MB.
Current ngspice program size =   11.750 MB.

