
Note: No compatibility mode selected!


Circuit: XOR2 seed characterization sample 4104028

Doing analysis at TEMP = 87.177700 and TNOM = 27.000000

Using SPARSE 1.3 as Direct Linear Solver

Initial Transient Solution
--------------------------

Node                                   Voltage
----                                   -------
vdd                                    1.73473
in                                           0
b                                      1.73473
abar                                   1.73473
bbar                                3.9687e-08
out                                    1.73473
vb#branch                                    0
vin#branch                          7.5192e-10
vdd#branch                        -1.34824e-09

 Reference value :  2.61477e-08
 Reference value :  6.05923e-08
 Reference value :  9.74123e-08
No. of Data Rows : 60047

  Measurements for Transient Analysis

tphl                =  2.13826e-10 targ=  2.45750e-09 trig=  2.24367e-09
tplh                =  2.41313e-10 targ=  2.29723e-08 trig=  2.27310e-08
i_vdd_avg           =  -3.83140e-06 from=  5.00000e-09 to=  1.10002e-07
power_avg_uw        =  6.64645e+00


Total analysis time (seconds) = 0.80953

Total elapsed time (seconds) = 0.881 

Total DRAM available = 16384.000 MB.
DRAM currently available =  251.438 MB.
Maximum ngspice program size =   12.578 MB.
Current ngspice program size =   12.031 MB.

