
Note: No compatibility mode selected!


Circuit: NOR2 seed characterization sample 4104047

Doing analysis at TEMP = 37.588900 and TNOM = 27.000000

Using SPARSE 1.3 as Direct Linear Solver

Initial Transient Solution
--------------------------

Node                                   Voltage
----                                   -------
vdd                                     1.8084
in                                           0
out                                     1.8084
pmid                                    1.8084
vin#branch                                   0
vdd#branch                        -7.52833e-11

 Reference value :  4.39402e-08
 Reference value :  1.04317e-07
No. of Data Rows : 60047

  Measurements for Transient Analysis

tphl                =  9.56741e-11 targ=  2.33028e-09 trig=  2.23461e-09
tplh                =  3.42481e-10 targ=  2.30463e-08 trig=  2.27038e-08
i_vdd_avg           =  -4.09090e-06 from=  5.00000e-09 to=  1.10001e-07
power_avg_uw        =  7.39799e+00


Total analysis time (seconds) = 0.480412

Total elapsed time (seconds) = 0.557 

Total DRAM available = 16384.000 MB.
DRAM currently available =  224.641 MB.
Maximum ngspice program size =   13.391 MB.
Current ngspice program size =   12.688 MB.

