
Note: No compatibility mode selected!


Circuit: NAND2 seed characterization sample 4104018

Doing analysis at TEMP = -8.970250 and TNOM = 27.000000

Using SPARSE 1.3 as Direct Linear Solver

Initial Transient Solution
--------------------------

Node                                   Voltage
----                                   -------
vdd                                    1.63436
in                                           0
out                                    1.63436
nmid                                 0.0237796
vin#branch                                   0
vdd#branch                        -1.72255e-12

 Reference value :  4.80855e-08
 Reference value :  1.09256e-07
No. of Data Rows : 60041

  Measurements for Transient Analysis

tphl                =  1.71906e-10 targ=  2.30316e-09 trig=  2.13126e-09
tplh                =  1.16292e-10 targ=  2.25101e-08 trig=  2.23938e-08
i_vdd_avg           =  -9.17734e-07 from=  5.00000e-09 to=  1.10000e-07
power_avg_uw        =  1.49991e+00


Total analysis time (seconds) = 0.470962

Total elapsed time (seconds) = 0.540 

Total DRAM available = 16384.000 MB.
DRAM currently available =  278.875 MB.
Maximum ngspice program size =   12.562 MB.
Current ngspice program size =   11.844 MB.

