
Note: No compatibility mode selected!


Circuit: INV seed characterization sample 4104005

Doing analysis at TEMP = 36.897100 and TNOM = 27.000000

Using SPARSE 1.3 as Direct Linear Solver

Initial Transient Solution
--------------------------

Node                                   Voltage
----                                   -------
vdd                                     1.9184
in                                           0
out                                     1.9184
vin#branch                                   0
vdd#branch                        -3.82148e-11

 Reference value :  7.41887e-08
No. of Data Rows : 60041

  Measurements for Transient Analysis

tphl                =  1.78690e-10 targ=  2.41111e-09 trig=  2.23242e-09
tplh                =  2.69359e-10 targ=  2.29666e-08 trig=  2.26973e-08
i_vdd_avg           =  -5.45070e-06 from=  5.00000e-09 to=  1.10001e-07
power_avg_uw        =  1.04566e+01


Total analysis time (seconds) = 0.292996

Total elapsed time (seconds) = 0.362 

Total DRAM available = 16384.000 MB.
DRAM currently available =  275.922 MB.
Maximum ngspice program size =   12.562 MB.
Current ngspice program size =   11.594 MB.

