
Note: No compatibility mode selected!


Circuit: NOR2 seed characterization sample 4104031

Doing analysis at TEMP = 27.714800 and TNOM = 27.000000

Using SPARSE 1.3 as Direct Linear Solver

Initial Transient Solution
--------------------------

Node                                   Voltage
----                                   -------
vdd                                    1.92332
in                                           0
out                                    1.92332
pmid                                   1.92332
vin#branch                                   0
vdd#branch                        -2.65368e-11

 Reference value :  4.52284e-08
 Reference value :  1.04634e-07
No. of Data Rows : 60047

  Measurements for Transient Analysis

tphl                =  1.28262e-11 targ=  2.21951e-09 trig=  2.20669e-09
tplh                =  1.60504e-10 targ=  2.27806e-08 trig=  2.26201e-08
i_vdd_avg           =  -8.11865e-07 from=  5.00000e-09 to=  1.10002e-07
power_avg_uw        =  1.56148e+00


Total analysis time (seconds) = 0.486547

Total elapsed time (seconds) = 0.558 

Total DRAM available = 16384.000 MB.
DRAM currently available =  285.672 MB.
Maximum ngspice program size =   12.859 MB.
Current ngspice program size =   12.859 MB.

