
Note: No compatibility mode selected!


Circuit: INV seed characterization sample 4104021

Doing analysis at TEMP = 10.310600 and TNOM = 27.000000

Using SPARSE 1.3 as Direct Linear Solver

Initial Transient Solution
--------------------------

Node                                   Voltage
----                                   -------
vdd                                    1.86497
in                                           0
out                                    1.86497
vin#branch                                   0
vdd#branch                        -8.09133e-12

 Reference value :  7.31619e-08
No. of Data Rows : 60047

  Measurements for Transient Analysis

tphl                =  3.99614e-11 targ=  2.05569e-09 trig=  2.01573e-09
tplh                =  4.90655e-11 targ=  2.20963e-08 trig=  2.20472e-08
i_vdd_avg           =  -2.04995e-06 from=  5.00000e-09 to=  1.10002e-07
power_avg_uw        =  3.82309e+00


Total analysis time (seconds) = 0.293213

Total elapsed time (seconds) = 0.363 

Total DRAM available = 16384.000 MB.
DRAM currently available =  252.109 MB.
Maximum ngspice program size =   12.562 MB.
Current ngspice program size =   11.750 MB.

