
Note: No compatibility mode selected!


Circuit: INV seed characterization sample 4104037

Doing analysis at TEMP = 27.463400 and TNOM = 27.000000

Using SPARSE 1.3 as Direct Linear Solver

Initial Transient Solution
--------------------------

Node                                   Voltage
----                                   -------
vdd                                    1.82981
in                                           0
out                                    1.82981
vin#branch                                   0
vdd#branch                        -5.77472e-12

 Reference value :  6.93964e-08
No. of Data Rows : 60041

  Measurements for Transient Analysis

tphl                =  2.78824e-10 targ=  2.37017e-09 trig=  2.09135e-09
tplh                =  2.73412e-10 targ=  2.25475e-08 trig=  2.22740e-08
i_vdd_avg           =  -3.85305e-06 from=  5.00000e-09 to=  1.10000e-07
power_avg_uw        =  7.05035e+00


Total analysis time (seconds) = 0.294549

Total elapsed time (seconds) = 0.373 

Total DRAM available = 16384.000 MB.
DRAM currently available =  214.141 MB.
Maximum ngspice program size =   12.828 MB.
Current ngspice program size =   12.344 MB.

