
Note: No compatibility mode selected!


Circuit: NAND2 seed characterization sample 4104034

Doing analysis at TEMP = 18.153200 and TNOM = 27.000000

Using SPARSE 1.3 as Direct Linear Solver

Initial Transient Solution
--------------------------

Node                                   Voltage
----                                   -------
vdd                                    1.69827
in                                           0
out                                    1.69827
nmid                                 0.0493997
vin#branch                                   0
vdd#branch                        -2.72809e-12

 Reference value :  4.65626e-08
 Reference value :  1.07488e-07
No. of Data Rows : 60044

  Measurements for Transient Analysis

tphl                =  1.10780e-10 targ=  2.12658e-09 trig=  2.01580e-09
tplh                =  5.68210e-11 targ=  2.21042e-08 trig=  2.20474e-08
i_vdd_avg           =  -2.15521e-06 from=  5.00000e-09 to=  1.10000e-07
power_avg_uw        =  3.66013e+00


Total analysis time (seconds) = 0.472355

Total elapsed time (seconds) = 0.545 

Total DRAM available = 16384.000 MB.
DRAM currently available =  209.109 MB.
Maximum ngspice program size =   12.562 MB.
Current ngspice program size =   11.688 MB.

