
Note: No compatibility mode selected!


Circuit: NAND2 seed characterization sample 4104010

Doing analysis at TEMP = 67.606200 and TNOM = 27.000000

Using SPARSE 1.3 as Direct Linear Solver

Initial Transient Solution
--------------------------

Node                                   Voltage
----                                   -------
vdd                                    1.91564
in                                           0
out                                    1.91564
nmid                                 0.0590638
vin#branch                                   0
vdd#branch                        -1.04897e-11

 Reference value :  4.72996e-08
 Reference value :  1.09560e-07
No. of Data Rows : 60041

  Measurements for Transient Analysis

tphl                =  6.33498e-10 targ=  2.82680e-09 trig=  2.19330e-09
tplh                =  2.19085e-10 targ=  2.27990e-08 trig=  2.25799e-08
i_vdd_avg           =  -5.42305e-06 from=  5.00000e-09 to=  1.10000e-07
power_avg_uw        =  1.03886e+01


Total analysis time (seconds) = 0.46518

Total elapsed time (seconds) = 0.535 

Total DRAM available = 16384.000 MB.
DRAM currently available =  275.344 MB.
Maximum ngspice program size =   12.562 MB.
Current ngspice program size =   11.844 MB.

