
Note: No compatibility mode selected!


Circuit: NOR2 seed characterization sample 4104035

Doing analysis at TEMP = 41.764800 and TNOM = 27.000000

Using SPARSE 1.3 as Direct Linear Solver

Initial Transient Solution
--------------------------

Node                                   Voltage
----                                   -------
vdd                                    1.93872
in                                           0
out                                    1.93872
pmid                                   1.93872
vin#branch                                   0
vdd#branch                        -8.36403e-11

 Reference value :  4.56201e-08
 Reference value :  1.04907e-07
No. of Data Rows : 60047

  Measurements for Transient Analysis

tphl                =  5.96207e-11 targ=  2.22419e-09 trig=  2.16456e-09
tplh                =  1.82956e-10 targ=  2.26766e-08 trig=  2.24937e-08
i_vdd_avg           =  -2.42622e-06 from=  5.00000e-09 to=  1.10001e-07
power_avg_uw        =  4.70377e+00


Total analysis time (seconds) = 0.485016

Total elapsed time (seconds) = 0.557 

Total DRAM available = 16384.000 MB.
DRAM currently available =  209.109 MB.
Maximum ngspice program size =   12.562 MB.
Current ngspice program size =   11.656 MB.

