
Note: No compatibility mode selected!


Circuit: NOR2 seed characterization sample 4403015

Doing analysis at TEMP = 54.586100 and TNOM = 27.000000

Using SPARSE 1.3 as Direct Linear Solver

Initial Transient Solution
--------------------------

Node                                   Voltage
----                                   -------
vdd                                    1.82796
in                                           0
out                                    1.82796
pmid                                   1.82796
vin#branch                                   0
vdd#branch                        -1.06154e-10

 Reference value :  4.63899e-08
 Reference value :  1.06963e-07
No. of Data Rows : 60041

  Measurements for Transient Analysis

tphl                =  1.32732e-10 targ=  2.20820e-09 trig=  2.07547e-09
tplh                =  5.36001e-10 targ=  2.27624e-08 trig=  2.22264e-08
i_vdd_avg           =  -5.75342e-06 from=  5.00000e-09 to=  1.10001e-07
power_avg_uw        =  1.05170e+01


Total analysis time (seconds) = 0.484126

Total elapsed time (seconds) = 0.554 

Total DRAM available = 16384.000 MB.
DRAM currently available =  286.656 MB.
Maximum ngspice program size =   12.562 MB.
Current ngspice program size =   11.625 MB.

