
Note: No compatibility mode selected!


Circuit: NOR2 seed characterization sample 4403019

Doing analysis at TEMP = 59.236000 and TNOM = 27.000000

Using SPARSE 1.3 as Direct Linear Solver

Initial Transient Solution
--------------------------

Node                                   Voltage
----                                   -------
vdd                                    1.81311
in                                           0
out                                    1.81311
pmid                                   1.81311
vin#branch                                   0
vdd#branch                        -6.93135e-11

 Reference value :  4.50170e-08
 Reference value :  1.06837e-07
No. of Data Rows : 60044

  Measurements for Transient Analysis

tphl                =  1.62421e-10 targ=  2.24641e-09 trig=  2.08399e-09
tplh                =  9.19216e-10 targ=  2.31712e-08 trig=  2.22520e-08
i_vdd_avg           =  -4.12371e-06 from=  5.00000e-09 to=  1.10001e-07
power_avg_uw        =  7.47674e+00


Total analysis time (seconds) = 0.47007

Total elapsed time (seconds) = 0.542 

Total DRAM available = 16384.000 MB.
DRAM currently available =  282.969 MB.
Maximum ngspice program size =   12.562 MB.
Current ngspice program size =   11.656 MB.

