
Note: No compatibility mode selected!


Circuit: XOR2 seed characterization sample 4403032

Doing analysis at TEMP = 1.563780 and TNOM = 27.000000

Using SPARSE 1.3 as Direct Linear Solver

Initial Transient Solution
--------------------------

Node                                   Voltage
----                                   -------
vdd                                     1.6546
in                                           0
b                                       1.6546
abar                                    1.6546
bbar                               1.77953e-09
out                                     1.6546
vb#branch                                    0
vin#branch                         2.79183e-12
vdd#branch                        -1.19652e-11

 Reference value :  2.63482e-08
 Reference value :  6.10376e-08
 Reference value :  9.54796e-08
No. of Data Rows : 60041

  Measurements for Transient Analysis

tphl                =  3.51335e-10 targ=  2.41763e-09 trig=  2.06629e-09
tplh                =  4.24104e-10 targ=  2.26230e-08 trig=  2.21989e-08
i_vdd_avg           =  -5.09484e-06 from=  5.00000e-09 to=  1.10000e-07
power_avg_uw        =  8.42993e+00


Total analysis time (seconds) = 0.82576

Total elapsed time (seconds) = 0.898 

Total DRAM available = 16384.000 MB.
DRAM currently available =  261.812 MB.
Maximum ngspice program size =   12.578 MB.
Current ngspice program size =   12.344 MB.

