
Note: No compatibility mode selected!


Circuit: NOR2 seed characterization sample 4403022

Doing analysis at TEMP = 76.746000 and TNOM = 27.000000

Using SPARSE 1.3 as Direct Linear Solver

Initial Transient Solution
--------------------------

Node                                   Voltage
----                                   -------
vdd                                    1.97006
in                                           0
out                                    1.97006
pmid                                   1.97006
vin#branch                                   0
vdd#branch                        -4.74474e-10

 Reference value :  4.42190e-08
 Reference value :  1.02793e-07
No. of Data Rows : 60044

  Measurements for Transient Analysis

tphl                =  1.14964e-10 targ=  2.28598e-09 trig=  2.17101e-09
tplh                =  3.88084e-10 targ=  2.29011e-08 trig=  2.25130e-08
i_vdd_avg           =  -4.36898e-06 from=  5.00000e-09 to=  1.10001e-07
power_avg_uw        =  8.60715e+00


Total analysis time (seconds) = 0.49941

Total elapsed time (seconds) = 0.573 

Total DRAM available = 16384.000 MB.
DRAM currently available =  266.172 MB.
Maximum ngspice program size =   12.562 MB.
Current ngspice program size =   11.688 MB.

