
Note: No compatibility mode selected!


Circuit: NOR2 seed characterization sample 4403031

Doing analysis at TEMP = 99.020000 and TNOM = 27.000000

Using SPARSE 1.3 as Direct Linear Solver

Initial Transient Solution
--------------------------

Node                                   Voltage
----                                   -------
vdd                                    1.70205
in                                           0
out                                    1.70205
pmid                                   1.70205
vin#branch                                   0
vdd#branch                        -6.44198e-10

 Reference value :  4.52620e-08
 Reference value :  1.04957e-07
No. of Data Rows : 60041

  Measurements for Transient Analysis

tphl                =  8.45611e-11 targ=  2.14405e-09 trig=  2.05949e-09
tplh                =  2.51573e-10 targ=  2.24300e-08 trig=  2.21785e-08
i_vdd_avg           =  -1.96613e-06 from=  5.00000e-09 to=  1.10001e-07
power_avg_uw        =  3.34645e+00


Total analysis time (seconds) = 0.490346

Total elapsed time (seconds) = 0.562 

Total DRAM available = 16384.000 MB.
DRAM currently available =  244.672 MB.
Maximum ngspice program size =   12.562 MB.
Current ngspice program size =   11.719 MB.

