
Note: No compatibility mode selected!


Circuit: NAND2 seed characterization sample 4403026

Doing analysis at TEMP = 4.538940 and TNOM = 27.000000

Using SPARSE 1.3 as Direct Linear Solver

Initial Transient Solution
--------------------------

Node                                   Voltage
----                                   -------
vdd                                    1.62086
in                                           0
out                                    1.62086
nmid                                 0.0441982
vin#branch                                   0
vdd#branch                        -2.07785e-12

 Reference value :  4.52587e-08
 Reference value :  1.04128e-07
No. of Data Rows : 60044

  Measurements for Transient Analysis

tphl                =  2.73973e-10 targ=  2.36683e-09 trig=  2.09286e-09
tplh                =  1.18960e-10 targ=  2.23975e-08 trig=  2.22786e-08
i_vdd_avg           =  -5.61669e-06 from=  5.00000e-09 to=  1.10000e-07
power_avg_uw        =  9.10387e+00


Total analysis time (seconds) = 0.495179

Total elapsed time (seconds) = 0.567 

Total DRAM available = 16384.000 MB.
DRAM currently available =  242.328 MB.
Maximum ngspice program size =   12.562 MB.
Current ngspice program size =   11.875 MB.

