
Note: No compatibility mode selected!


Circuit: XOR2 seed characterization sample 4403021

Doing analysis at TEMP = 50.699700 and TNOM = 27.000000

Using SPARSE 1.3 as Direct Linear Solver

Initial Transient Solution
--------------------------

Node                                   Voltage
----                                   -------
vdd                                    1.97407
in                                           0
b                                      1.97407
abar                                   1.97407
bbar                               4.71269e-09
out                                    1.97407
vb#branch                                    0
vin#branch                         4.93687e-11
vdd#branch                        -9.52389e-11

 Reference value :  2.55119e-08
 Reference value :  5.94375e-08
 Reference value :  9.37015e-08
No. of Data Rows : 60044

  Measurements for Transient Analysis

tphl                =  3.62681e-10 targ=  2.59192e-09 trig=  2.22924e-09
tplh                =  5.07441e-10 targ=  2.31952e-08 trig=  2.26877e-08
i_vdd_avg           =  -5.52747e-06 from=  5.00000e-09 to=  1.10002e-07
power_avg_uw        =  1.09116e+01


Total analysis time (seconds) = 0.837368

Total elapsed time (seconds) = 0.912 

Total DRAM available = 16384.000 MB.
DRAM currently available =  257.562 MB.
Maximum ngspice program size =   12.578 MB.
Current ngspice program size =   11.859 MB.

