
Note: No compatibility mode selected!


Circuit: NAND2 seed characterization sample 4403044

Doing analysis at TEMP = 85.283600 and TNOM = 27.000000

Using SPARSE 1.3 as Direct Linear Solver

Initial Transient Solution
--------------------------

Node                                   Voltage
----                                   -------
vdd                                    1.73834
in                                           0
out                                    1.73834
nmid                                 0.0561293
vin#branch                                   0
vdd#branch                        -4.42828e-11

 Reference value :  4.71130e-08
 Reference value :  1.08679e-07
No. of Data Rows : 60044

  Measurements for Transient Analysis

tphl                =  3.41000e-10 targ=  2.47502e-09 trig=  2.13402e-09
tplh                =  1.73383e-10 targ=  2.25754e-08 trig=  2.24021e-08
i_vdd_avg           =  -3.57134e-06 from=  5.00000e-09 to=  1.10001e-07
power_avg_uw        =  6.20821e+00


Total analysis time (seconds) = 0.47211

Total elapsed time (seconds) = 0.541 

Total DRAM available = 16384.000 MB.
DRAM currently available =  258.094 MB.
Maximum ngspice program size =   12.562 MB.
Current ngspice program size =   11.906 MB.

