
Note: No compatibility mode selected!


Circuit: NOR2 seed characterization sample 4403033

Doing analysis at TEMP = 1.474270 and TNOM = 27.000000

Using SPARSE 1.3 as Direct Linear Solver

Initial Transient Solution
--------------------------

Node                                   Voltage
----                                   -------
vdd                                    1.66799
in                                           0
out                                    1.66799
pmid                                   1.66799
vin#branch                                   0
vdd#branch                        -6.01357e-12

 Reference value :  4.54334e-08
 Reference value :  1.05428e-07
No. of Data Rows : 60044

  Measurements for Transient Analysis

tphl                =  4.75679e-11 targ=  2.06080e-09 trig=  2.01324e-09
tplh                =  2.60592e-10 targ=  2.23003e-08 trig=  2.20397e-08
i_vdd_avg           =  -2.60868e-06 from=  5.00000e-09 to=  1.10002e-07
power_avg_uw        =  4.35126e+00


Total analysis time (seconds) = 0.473024

Total elapsed time (seconds) = 0.546 

Total DRAM available = 16384.000 MB.
DRAM currently available =  254.203 MB.
Maximum ngspice program size =   12.562 MB.
Current ngspice program size =   11.906 MB.

