
Note: No compatibility mode selected!


Circuit: XOR2 seed characterization sample 4403014

Doing analysis at TEMP = 30.085400 and TNOM = 27.000000

Using SPARSE 1.3 as Direct Linear Solver

Initial Transient Solution
--------------------------

Node                                   Voltage
----                                   -------
vdd                                    1.86383
in                                           0
b                                      1.86383
abar                                   1.86383
bbar                               3.01315e-09
out                                    1.86383
vb#branch                                    0
vin#branch                         1.16052e-11
vdd#branch                        -2.82754e-11

 Reference value :  2.54653e-08
 Reference value :  6.04801e-08
 Reference value :  9.45601e-08
No. of Data Rows : 60047

  Measurements for Transient Analysis

tphl                =  4.41072e-10 targ=  2.57164e-09 trig=  2.13057e-09
tplh                =  4.93339e-10 targ=  2.28850e-08 trig=  2.23917e-08
i_vdd_avg           =  -6.34640e-06 from=  5.00000e-09 to=  1.10001e-07
power_avg_uw        =  1.18286e+01


Total analysis time (seconds) = 0.825925

Total elapsed time (seconds) = 0.903 

Total DRAM available = 16384.000 MB.
DRAM currently available =  286.656 MB.
Maximum ngspice program size =   13.172 MB.
Current ngspice program size =   12.359 MB.

