
Note: No compatibility mode selected!


Circuit: XOR2 seed characterization sample 4403046

Doing analysis at TEMP = -18.787800 and TNOM = 27.000000

Using SPARSE 1.3 as Direct Linear Solver

Initial Transient Solution
--------------------------

Node                                   Voltage
----                                   -------
vdd                                    1.89627
in                                           0
b                                      1.89627
abar                                   1.89627
bbar                               1.34293e-09
out                                    1.89627
vb#branch                                    0
vin#branch                         2.19298e-12
vdd#branch                        -1.19422e-11

 Reference value :  2.45840e-08
 Reference value :  5.92315e-08
 Reference value :  9.44335e-08
No. of Data Rows : 60044

  Measurements for Transient Analysis

tphl                =  1.48723e-10 targ=  2.27097e-09 trig=  2.12225e-09
tplh                =  1.79130e-10 targ=  2.25459e-08 trig=  2.23667e-08
i_vdd_avg           =  -2.62135e-06 from=  5.00000e-09 to=  1.10002e-07
power_avg_uw        =  4.97079e+00


Total analysis time (seconds) = 0.827183

Total elapsed time (seconds) = 0.909 

Total DRAM available = 16384.000 MB.
DRAM currently available =  212.609 MB.
Maximum ngspice program size =   15.172 MB.
Current ngspice program size =   15.172 MB.

