
Note: No compatibility mode selected!


Circuit: NAND2 seed characterization sample 4403023

Doing analysis at TEMP = 62.111400 and TNOM = 27.000000

Using SPARSE 1.3 as Direct Linear Solver

Initial Transient Solution
--------------------------

Node                                   Voltage
----                                   -------
vdd                                    1.93623
in                                           0
out                                    1.93623
nmid                                 0.0592983
vin#branch                                   0
vdd#branch                        -5.75136e-12

 Reference value :  4.55223e-08
 Reference value :  1.05238e-07
No. of Data Rows : 60047

  Measurements for Transient Analysis

tphl                =  2.68123e-10 targ=  2.46575e-09 trig=  2.19763e-09
tplh                =  1.48962e-10 targ=  2.27419e-08 trig=  2.25929e-08
i_vdd_avg           =  -9.49071e-07 from=  5.00000e-09 to=  1.10002e-07
power_avg_uw        =  1.83762e+00


Total analysis time (seconds) = 0.488058

Total elapsed time (seconds) = 0.561 

Total DRAM available = 16384.000 MB.
DRAM currently available =  245.812 MB.
Maximum ngspice program size =   12.562 MB.
Current ngspice program size =   11.719 MB.

