
Note: No compatibility mode selected!


Circuit: INV seed characterization sample 4403047

Doing analysis at TEMP = 72.326000 and TNOM = 27.000000

Using SPARSE 1.3 as Direct Linear Solver

Initial Transient Solution
--------------------------

Node                                   Voltage
----                                   -------
vdd                                    1.96288
in                                           0
out                                    1.96288
vin#branch                                   0
vdd#branch                        -1.14357e-10

 Reference value :  6.74689e-08
No. of Data Rows : 60050

  Measurements for Transient Analysis

tphl                =  1.02785e-10 targ=  2.10858e-09 trig=  2.00580e-09
tplh                =  1.24599e-10 targ=  2.21420e-08 trig=  2.20174e-08
i_vdd_avg           =  -2.34254e-06 from=  5.00000e-09 to=  1.10001e-07
power_avg_uw        =  4.59813e+00


Total analysis time (seconds) = 0.303526

Total elapsed time (seconds) = 0.388 

Total DRAM available = 16384.000 MB.
DRAM currently available =  257.984 MB.
Maximum ngspice program size =   16.125 MB.
Current ngspice program size =   16.125 MB.

