
Note: No compatibility mode selected!


Circuit: XOR2 seed characterization sample 4221016

Doing analysis at TEMP = 88.888500 and TNOM = 27.000000

Using SPARSE 1.3 as Direct Linear Solver

Initial Transient Solution
--------------------------

Node                                   Voltage
----                                   -------
vdd                                    1.63402
in                                           0
b                                      1.63402
abar                                   1.63402
bbar                                3.7727e-09
out                                    1.63402
vb#branch                                    0
vin#branch                         6.65722e-11
vdd#branch                        -1.25609e-10

 Reference value :  2.68043e-08
 Reference value :  6.16636e-08
 Reference value :  9.87196e-08
No. of Data Rows : 60041

  Measurements for Transient Analysis

tphl                =  2.99346e-10 targ=  2.34266e-09 trig=  2.04332e-09
tplh                =  4.70416e-10 targ=  2.26004e-08 trig=  2.21299e-08
i_vdd_avg           =  -5.49844e-06 from=  5.00000e-09 to=  1.10000e-07
power_avg_uw        =  8.98456e+00


Total analysis time (seconds) = 0.801161

Total elapsed time (seconds) = 0.871 

Total DRAM available = 16384.000 MB.
DRAM currently available =  193.141 MB.
Maximum ngspice program size =   12.578 MB.
Current ngspice program size =   11.969 MB.

