
Note: No compatibility mode selected!


Circuit: XOR2 seed characterization sample 4221004

Doing analysis at TEMP = 59.160000 and TNOM = 27.000000

Using SPARSE 1.3 as Direct Linear Solver

Initial Transient Solution
--------------------------

Node                                   Voltage
----                                   -------
vdd                                    1.74894
in                                           0
b                                      1.74894
abar                                   1.74894
bbar                               4.79371e-09
out                                    1.74894
vb#branch                                    0
vin#branch                         4.52943e-12
vdd#branch                        -1.54422e-11

 Reference value :  2.54860e-08
 Reference value :  6.07975e-08
 Reference value :  9.83355e-08
No. of Data Rows : 60041

  Measurements for Transient Analysis

tphl                =  4.03606e-10 targ=  2.51486e-09 trig=  2.11126e-09
tplh                =  4.32254e-10 targ=  2.27660e-08 trig=  2.23338e-08
i_vdd_avg           =  -2.53956e-06 from=  5.00000e-09 to=  1.10000e-07
power_avg_uw        =  4.44154e+00


Total analysis time (seconds) = 0.794924

Total elapsed time (seconds) = 0.873 

Total DRAM available = 16384.000 MB.
DRAM currently available =  182.797 MB.
Maximum ngspice program size =   13.547 MB.
Current ngspice program size =   13.031 MB.

