
Note: No compatibility mode selected!


Circuit: XOR2 seed characterization sample 4221036

Doing analysis at TEMP = 31.693600 and TNOM = 27.000000

Using SPARSE 1.3 as Direct Linear Solver

Initial Transient Solution
--------------------------

Node                                   Voltage
----                                   -------
vdd                                    1.90598
in                                           0
b                                      1.90598
abar                                   1.90598
bbar                               1.15127e-09
out                                    1.90598
vb#branch                                    0
vin#branch                         3.77628e-12
vdd#branch                        -1.48045e-11

 Reference value :  2.57101e-08
 Reference value :  6.03357e-08
 Reference value :  9.67657e-08
No. of Data Rows : 60050

  Measurements for Transient Analysis

tphl                =  1.24127e-10 targ=  2.13308e-09 trig=  2.00895e-09
tplh                =  1.71128e-10 targ=  2.21980e-08 trig=  2.20268e-08
i_vdd_avg           =  -3.54563e-06 from=  5.00000e-09 to=  1.10000e-07
power_avg_uw        =  6.75790e+00


Total analysis time (seconds) = 0.813619

Total elapsed time (seconds) = 0.889 

Total DRAM available = 16384.000 MB.
DRAM currently available =  163.750 MB.
Maximum ngspice program size =   12.578 MB.
Current ngspice program size =   11.719 MB.

