
Note: No compatibility mode selected!


Circuit: XOR2 seed characterization sample 4221012

Doing analysis at TEMP = 15.194100 and TNOM = 27.000000

Using SPARSE 1.3 as Direct Linear Solver

Initial Transient Solution
--------------------------

Node                                   Voltage
----                                   -------
vdd                                    1.75701
in                                           0
b                                      1.75701
abar                                   1.75701
bbar                               1.22915e-09
out                                    1.75701
vb#branch                                    0
vin#branch                         2.13786e-12
vdd#branch                        -1.12599e-11

 Reference value :  2.70322e-08
 Reference value :  6.20356e-08
 Reference value :  9.95176e-08
No. of Data Rows : 60041

  Measurements for Transient Analysis

tphl                =  2.94919e-10 targ=  2.49621e-09 trig=  2.20129e-09
tplh                =  3.07690e-10 targ=  2.29116e-08 trig=  2.26039e-08
i_vdd_avg           =  -4.54545e-06 from=  5.00000e-09 to=  1.10000e-07
power_avg_uw        =  7.98639e+00


Total analysis time (seconds) = 0.794995

Total elapsed time (seconds) = 0.865 

Total DRAM available = 16384.000 MB.
DRAM currently available =  191.328 MB.
Maximum ngspice program size =   12.625 MB.
Current ngspice program size =   12.391 MB.

