
Note: No compatibility mode selected!


Circuit: INV seed characterization sample 4221001

Doing analysis at TEMP = 7.983420 and TNOM = 27.000000

Using SPARSE 1.3 as Direct Linear Solver

Initial Transient Solution
--------------------------

Node                                   Voltage
----                                   -------
vdd                                    1.82205
in                                           0
out                                    1.82205
vin#branch                                   0
vdd#branch                         -2.0736e-12

 Reference value :  7.14026e-08
No. of Data Rows : 60044

  Measurements for Transient Analysis

tphl                =  9.21471e-11 targ=  2.13305e-09 trig=  2.04091e-09
tplh                =  1.29607e-10 targ=  2.22523e-08 trig=  2.21227e-08
i_vdd_avg           =  -3.66502e-06 from=  5.00000e-09 to=  1.10001e-07
power_avg_uw        =  6.67785e+00


Total analysis time (seconds) = 0.289636

Total elapsed time (seconds) = 0.367 

Total DRAM available = 16384.000 MB.
DRAM currently available =  225.328 MB.
Maximum ngspice program size =   13.922 MB.
Current ngspice program size =   13.766 MB.

