
Note: No compatibility mode selected!


Circuit: INV seed characterization sample 4221025

Doing analysis at TEMP = 76.611500 and TNOM = 27.000000

Using SPARSE 1.3 as Direct Linear Solver

Initial Transient Solution
--------------------------

Node                                   Voltage
----                                   -------
vdd                                    1.83438
in                                           0
out                                    1.83438
vin#branch                                   0
vdd#branch                        -3.10218e-11

 Reference value :  7.35711e-08
No. of Data Rows : 60044

  Measurements for Transient Analysis

tphl                =  1.12197e-10 targ=  2.17423e-09 trig=  2.06204e-09
tplh                =  1.45666e-10 targ=  2.23318e-08 trig=  2.21861e-08
i_vdd_avg           =  -3.23856e-06 from=  5.00000e-09 to=  1.10001e-07
power_avg_uw        =  5.94075e+00


Total analysis time (seconds) = 0.296487

Total elapsed time (seconds) = 0.364 

Total DRAM available = 16384.000 MB.
DRAM currently available =  194.828 MB.
Maximum ngspice program size =   12.562 MB.
Current ngspice program size =   11.594 MB.

