
Note: No compatibility mode selected!


Circuit: NAND2 seed characterization sample 4221010

Doing analysis at TEMP = 53.007900 and TNOM = 27.000000

Using SPARSE 1.3 as Direct Linear Solver

Initial Transient Solution
--------------------------

Node                                   Voltage
----                                   -------
vdd                                    1.75662
in                                           0
out                                    1.75662
nmid                                  0.047915
vin#branch                                   0
vdd#branch                        -2.73747e-12

 Reference value :  4.75470e-08
 Reference value :  1.09849e-07
No. of Data Rows : 60044

  Measurements for Transient Analysis

tphl                =  2.36920e-10 targ=  2.27090e-09 trig=  2.03398e-09
tplh                =  7.57196e-11 targ=  2.21777e-08 trig=  2.21019e-08
i_vdd_avg           =  -3.49855e-06 from=  5.00000e-09 to=  1.10001e-07
power_avg_uw        =  6.14562e+00


Total analysis time (seconds) = 0.464748

Total elapsed time (seconds) = 0.535 

Total DRAM available = 16384.000 MB.
DRAM currently available =  186.141 MB.
Maximum ngspice program size =   12.562 MB.
Current ngspice program size =   11.594 MB.

