
Note: No compatibility mode selected!


Circuit: NAND2 seed characterization sample 4221038

Doing analysis at TEMP = 95.334600 and TNOM = 27.000000

Using SPARSE 1.3 as Direct Linear Solver

Initial Transient Solution
--------------------------

Node                                   Voltage
----                                   -------
vdd                                    1.74812
in                                           0
out                                    1.74812
nmid                                 0.0523947
vin#branch                                   0
vdd#branch                        -1.17763e-11

 Reference value :  4.57195e-08
 Reference value :  1.06170e-07
No. of Data Rows : 60044

  Measurements for Transient Analysis

tphl                =  3.78202e-10 targ=  2.49445e-09 trig=  2.11624e-09
tplh                =  1.60461e-10 targ=  2.25092e-08 trig=  2.23487e-08
i_vdd_avg           =  -3.95174e-06 from=  5.00000e-09 to=  1.10002e-07
power_avg_uw        =  6.90811e+00


Total analysis time (seconds) = 0.475611

Total elapsed time (seconds) = 0.549 

Total DRAM available = 16384.000 MB.
DRAM currently available =  162.406 MB.
Maximum ngspice program size =   12.609 MB.
Current ngspice program size =   11.672 MB.

