
Note: No compatibility mode selected!


Circuit: NAND2 seed characterization sample 4221006

Doing analysis at TEMP = 6.142180 and TNOM = 27.000000

Using SPARSE 1.3 as Direct Linear Solver

Initial Transient Solution
--------------------------

Node                                   Voltage
----                                   -------
vdd                                    1.81914
in                                           0
out                                    1.81914
nmid                                0.00999797
vin#branch                                   0
vdd#branch                        -1.85782e-12

 Reference value :  4.74086e-08
 Reference value :  1.09118e-07
No. of Data Rows : 60044

  Measurements for Transient Analysis

tphl                =  4.31030e-10 targ=  2.55183e-09 trig=  2.12080e-09
tplh                =  1.74336e-10 targ=  2.25368e-08 trig=  2.23624e-08
i_vdd_avg           =  -3.03169e-06 from=  5.00000e-09 to=  1.10000e-07
power_avg_uw        =  5.51506e+00


Total analysis time (seconds) = 0.467495

Total elapsed time (seconds) = 0.538 

Total DRAM available = 16384.000 MB.
DRAM currently available =  191.781 MB.
Maximum ngspice program size =   12.562 MB.
Current ngspice program size =   11.719 MB.

