
Note: No compatibility mode selected!


Circuit: NOR2 seed characterization sample 4221011

Doing analysis at TEMP = -19.518400 and TNOM = 27.000000

Using SPARSE 1.3 as Direct Linear Solver

Initial Transient Solution
--------------------------

Node                                   Voltage
----                                   -------
vdd                                    1.77252
in                                           0
out                                    1.77252
pmid                                   1.77252
vin#branch                                   0
vdd#branch                        -3.58251e-12

 Reference value :  4.66324e-08
 Reference value :  1.07998e-07
No. of Data Rows : 60047

  Measurements for Transient Analysis

tphl                =  1.22458e-10 targ=  2.19714e-09 trig=  2.07469e-09
tplh                =  4.09084e-10 targ=  2.26331e-08 trig=  2.22241e-08
i_vdd_avg           =  -5.57265e-06 from=  5.00000e-09 to=  1.10002e-07
power_avg_uw        =  9.87763e+00


Total analysis time (seconds) = 0.473397

Total elapsed time (seconds) = 0.543 

Total DRAM available = 16384.000 MB.
DRAM currently available =  186.141 MB.
Maximum ngspice program size =   12.562 MB.
Current ngspice program size =   11.656 MB.

