
Note: No compatibility mode selected!


Circuit: XOR2 seed characterization sample 4221040

Doing analysis at TEMP = 41.465000 and TNOM = 27.000000

Using SPARSE 1.3 as Direct Linear Solver

Initial Transient Solution
--------------------------

Node                                   Voltage
----                                   -------
vdd                                    1.77927
in                                           0
b                                      1.77927
abar                                   1.77927
bbar                               3.43496e-09
out                                    1.77927
vb#branch                                    0
vin#branch                         2.83052e-12
vdd#branch                        -1.25511e-11

 Reference value :  2.61154e-08
 Reference value :  6.06752e-08
 Reference value :  9.74272e-08
No. of Data Rows : 60044

  Measurements for Transient Analysis

tphl                =  6.60454e-10 targ=  2.85856e-09 trig=  2.19811e-09
tplh                =  8.33778e-10 targ=  2.34281e-08 trig=  2.25943e-08
i_vdd_avg           =  -5.39553e-06 from=  5.00000e-09 to=  1.10001e-07
power_avg_uw        =  9.60010e+00


Total analysis time (seconds) = 0.808454

Total elapsed time (seconds) = 0.883 

Total DRAM available = 16384.000 MB.
DRAM currently available =  201.594 MB.
Maximum ngspice program size =   12.578 MB.
Current ngspice program size =   11.891 MB.

