
Note: No compatibility mode selected!


Circuit: NAND2 seed characterization sample 4221042

Doing analysis at TEMP = 33.643700 and TNOM = 27.000000

Using SPARSE 1.3 as Direct Linear Solver

Initial Transient Solution
--------------------------

Node                                   Voltage
----                                   -------
vdd                                    1.92827
in                                           0
out                                    1.92827
nmid                                 0.0453143
vin#branch                                   0
vdd#branch                        -2.30109e-12

 Reference value :  4.73312e-08
 Reference value :  1.08755e-07
No. of Data Rows : 60044

  Measurements for Transient Analysis

tphl                =  1.49320e-10 targ=  2.16944e-09 trig=  2.02012e-09
tplh                =  5.13573e-11 targ=  2.21117e-08 trig=  2.20604e-08
i_vdd_avg           =  -3.55313e-06 from=  5.00000e-09 to=  1.10001e-07
power_avg_uw        =  6.85140e+00


Total analysis time (seconds) = 0.47097

Total elapsed time (seconds) = 0.540 

Total DRAM available = 16384.000 MB.
DRAM currently available =  210.297 MB.
Maximum ngspice program size =   12.562 MB.
Current ngspice program size =   11.688 MB.

