
Note: No compatibility mode selected!


Circuit: NAND2 seed characterization sample 4221022

Doing analysis at TEMP = 62.279200 and TNOM = 27.000000

Using SPARSE 1.3 as Direct Linear Solver

Initial Transient Solution
--------------------------

Node                                   Voltage
----                                   -------
vdd                                    1.90528
in                                           0
out                                    1.90528
nmid                                 0.0526193
vin#branch                                   0
vdd#branch                        -4.14577e-12

 Reference value :  4.67442e-08
 Reference value :  1.08037e-07
No. of Data Rows : 60047

  Measurements for Transient Analysis

tphl                =  2.04751e-10 targ=  2.36936e-09 trig=  2.16461e-09
tplh                =  1.29791e-10 targ=  2.26236e-08 trig=  2.24938e-08
i_vdd_avg           =  -2.98586e-06 from=  5.00000e-09 to=  1.10001e-07
power_avg_uw        =  5.68890e+00


Total analysis time (seconds) = 0.47193

Total elapsed time (seconds) = 0.542 

Total DRAM available = 16384.000 MB.
DRAM currently available =  187.844 MB.
Maximum ngspice program size =   12.562 MB.
Current ngspice program size =   11.656 MB.

