
Note: No compatibility mode selected!


Circuit: INV seed characterization sample 4221009

Doing analysis at TEMP = 94.973100 and TNOM = 27.000000

Using SPARSE 1.3 as Direct Linear Solver

Initial Transient Solution
--------------------------

Node                                   Voltage
----                                   -------
vdd                                    1.87575
in                                           0
out                                    1.87575
vin#branch                                   0
vdd#branch                        -3.53103e-11

 Reference value :  7.36236e-08
No. of Data Rows : 60044

  Measurements for Transient Analysis

tphl                =  2.92013e-10 targ=  2.50416e-09 trig=  2.21215e-09
tplh                =  4.43710e-10 targ=  2.30801e-08 trig=  2.26364e-08
i_vdd_avg           =  -3.73999e-06 from=  5.00000e-09 to=  1.10002e-07
power_avg_uw        =  7.01529e+00


Total analysis time (seconds) = 0.291479

Total elapsed time (seconds) = 0.361 

Total DRAM available = 16384.000 MB.
DRAM currently available =  186.141 MB.
Maximum ngspice program size =   12.562 MB.
Current ngspice program size =   11.906 MB.

