
Note: No compatibility mode selected!


Circuit: GF180MCU library cell nor2_1 A1_to_ZN__A2=0

Doing analysis at TEMP = -5.062740 and TNOM = 27.000000

Using SPARSE 1.3 as Direct Linear Solver

Initial Transient Solution
--------------------------

Node                                   Voltage
----                                   -------
vdd                                    1.92142
a1                                           0
a2                                           0
zn                                     1.92142
xu1.net_0                              1.92142
vfix_a2#branch                               0
vin#branch                                   0
vdd#branch                        -3.86298e-12

 Reference value :  8.59788e-08
 Reference value :  2.19399e-07
No. of Data Rows : 68030

  Measurements for Transient Analysis

tphl                =  4.13201e-09 targ=  2.82427e-08 trig=  2.41107e-08
tplh                =  1.45036e-08 targ=  1.08836e-07 trig=  9.43320e-08
i_vdd_avg           =  -1.84946e-06 from=  1.00000e-08 to=  3.30000e-07
power_avg_uw        =  3.55359e+00


Total analysis time (seconds) = 0.730442

Total elapsed time (seconds) = 0.810 

Total DRAM available = 16384.000 MB.
DRAM currently available =  313.406 MB.
Maximum ngspice program size =   18.125 MB.
Current ngspice program size =   18.125 MB.

