
Note: No compatibility mode selected!


Circuit: GF180MCU library cell mux2_1 I0_to_Z__I1=0,S=0

Doing analysis at TEMP = -11.762690 and TNOM = 27.000000

Using SPARSE 1.3 as Direct Linear Solver

Initial Transient Solution
--------------------------

Node                                   Voltage
----                                   -------
vdd                                    1.66501
i0                                           0
i1                                           0
s                                            0
xu1.int04                              1.66501
z                                  1.40575e-08
xu1.net_1                          0.000129598
xu1.net_3                              1.02758
xu1.sel1_n                             1.66501
xu1.net_0                              1.66501
xu1.net_2                              1.66501
vfix_s#branch                                0
vfix_i1#branch                               0
vin#branch                                   0
vdd#branch                        -8.84205e-12

 Reference value :  3.44152e-08
 Reference value :  8.82652e-08
 Reference value :  1.39458e-07
 Reference value :  1.94140e-07
 Reference value :  2.46350e-07
 Reference value :  2.98493e-07
No. of Data Rows : 68034

  Measurements for Transient Analysis

tplh                =  9.17346e-09 targ=  3.52698e-08 trig=  2.60964e-08
tphl                =  6.11482e-09 targ=  1.06404e-07 trig=  1.00289e-07
i_vdd_avg           =  -1.20165e-06 from=  1.00000e-08 to=  3.30003e-07
power_avg_uw        =  2.00077e+00


Total analysis time (seconds) = 1.75604

Total elapsed time (seconds) = 1.844 

Total DRAM available = 16384.000 MB.
DRAM currently available =  230.797 MB.
Maximum ngspice program size =   18.750 MB.
Current ngspice program size =   18.750 MB.

