
Note: No compatibility mode selected!


Circuit: GF180MCU library cell xor2_1 A1_to_Z__A2=0

Doing analysis at TEMP = 74.750539 and TNOM = 27.000000

Using SPARSE 1.3 as Direct Linear Solver

Initial Transient Solution
--------------------------

Node                                   Voltage
----                                   -------
vdd                                    1.68051
a1                                           0
a2                                           0
xu1.i                                  1.68051
z                                  6.28529e-08
xu1.net_0                          1.19906e-08
xu1.net_2                              1.68051
xu1.net_1                             0.733169
vfix_a2#branch                               0
vin#branch                                   0
vdd#branch                        -1.04119e-11

 Reference value :  3.98727e-08
 Reference value :  1.04263e-07
 Reference value :  1.64003e-07
 Reference value :  2.23508e-07
 Reference value :  2.84348e-07
No. of Data Rows : 68032

  Measurements for Transient Analysis

tplh                =  1.01993e-08 targ=  3.65095e-08 trig=  2.63101e-08
tphl                =  4.88963e-09 targ=  1.05820e-07 trig=  1.00930e-07
i_vdd_avg           =  -6.88383e-07 from=  1.00000e-08 to=  3.30003e-07
power_avg_uw        =  1.15684e+00


Total analysis time (seconds) = 1.5596

Total elapsed time (seconds) = 1.652 

Total DRAM available = 16384.000 MB.
DRAM currently available =  119.750 MB.
Maximum ngspice program size =   18.141 MB.
Current ngspice program size =   18.141 MB.

