
Note: No compatibility mode selected!


Circuit: GF180MCU library cell nor2_1 A1_to_ZN__A2=0

Doing analysis at TEMP = -15.142179 and TNOM = 27.000000

Using SPARSE 1.3 as Direct Linear Solver

Initial Transient Solution
--------------------------

Node                                   Voltage
----                                   -------
vdd                                    1.67853
a1                                           0
a2                                           0
zn                                     1.67853
xu1.net_0                              1.67853
vfix_a2#branch                               0
vin#branch                                   0
vdd#branch                         -3.3771e-12

 Reference value :  8.98718e-08
 Reference value :  2.26387e-07
No. of Data Rows : 68032

  Measurements for Transient Analysis

tphl                =  4.96309e-09 targ=  3.43553e-08 trig=  2.93922e-08
tplh                =  1.09148e-08 targ=  1.21091e-07 trig=  1.10177e-07
i_vdd_avg           =  -5.45030e-07 from=  1.00000e-08 to=  3.30001e-07
power_avg_uw        =  9.14849e-01


Total analysis time (seconds) = 0.730338

Total elapsed time (seconds) = 0.816 

Total DRAM available = 16384.000 MB.
DRAM currently available =  343.875 MB.
Maximum ngspice program size =   18.547 MB.
Current ngspice program size =   18.547 MB.

