
Note: No compatibility mode selected!


Circuit: GF180MCU library cell mux2_4 I0_to_Z__I1=0,S=0

Doing analysis at TEMP = -31.386647 and TNOM = 27.000000

Using SPARSE 1.3 as Direct Linear Solver

Initial Transient Solution
--------------------------

Node                                   Voltage
----                                   -------
vdd                                    1.65892
i0                                           0
i1                                           0
s                                            0
xu1.int04                              1.65892
z                                  1.32276e-08
xu1.net_1                          6.49537e-07
xu1.net_3                             0.888877
xu1.sel1_n                             1.65892
xu1.net_0                              1.65892
xu1.net_2                              1.65892
vfix_s#branch                                0
vfix_i1#branch                               0
vin#branch                                   0
vdd#branch                        -1.37421e-11

 Reference value :  2.95025e-08
 Reference value :  7.08327e-08
 Reference value :  1.10028e-07
 Reference value :  1.45408e-07
 Reference value :  1.81653e-07
 Reference value :  2.15138e-07
 Reference value :  2.51628e-07
 Reference value :  2.89558e-07
 Reference value :  3.24423e-07
No. of Data Rows : 68032

  Measurements for Transient Analysis

tplh                =  3.91276e-09 targ=  3.22103e-08 trig=  2.82976e-08
tphl                =  5.90110e-09 targ=  1.12794e-07 trig=  1.06893e-07
i_vdd_avg           =  -5.37567e-07 from=  1.00000e-08 to=  3.30003e-07
power_avg_uw        =  8.91783e-01


Total analysis time (seconds) = 2.51371

Total elapsed time (seconds) = 2.582 

Total DRAM available = 16384.000 MB.
DRAM currently available =  361.516 MB.
Maximum ngspice program size =   16.969 MB.
Current ngspice program size =   16.969 MB.

