
Note: No compatibility mode selected!


Circuit: GF180MCU library cell xor2_4 A1_to_Z__A2=0

Doing analysis at TEMP = 76.176844 and TNOM = 27.000000

Using SPARSE 1.3 as Direct Linear Solver

Initial Transient Solution
--------------------------

Node                                   Voltage
----                                   -------
vdd                                     1.6957
a1                                           0
a2                                           0
xu1.net_2                            0.0288653
xu1.i                                   1.6957
xu1.net_0                          1.39144e-09
xu1.z_neg                               1.6957
z                                  1.77024e-08
xu1.net_1                               1.6957
vfix_a2#branch                               0
vin#branch                                   0
vdd#branch                         -1.2528e-11

 Reference value :  2.40075e-08
 Reference value :  6.10697e-08
 Reference value :  9.73847e-08
 Reference value :  1.34177e-07
 Reference value :  1.71077e-07
 Reference value :  2.07790e-07
 Reference value :  2.44935e-07
 Reference value :  2.80652e-07
 Reference value :  3.16767e-07
No. of Data Rows : 68030

  Measurements for Transient Analysis

tplh                =  6.19382e-09 targ=  3.48324e-08 trig=  2.86386e-08
tphl                =  7.14514e-09 targ=  1.15061e-07 trig=  1.07916e-07
i_vdd_avg           =  -2.05331e-06 from=  1.00000e-08 to=  3.30002e-07
power_avg_uw        =  3.48179e+00


Total analysis time (seconds) = 2.6999

Total elapsed time (seconds) = 2.788 

Total DRAM available = 16384.000 MB.
DRAM currently available =  178.031 MB.
Maximum ngspice program size =   18.234 MB.
Current ngspice program size =   18.234 MB.

