
Note: No compatibility mode selected!


Circuit: GF180MCU library cell mux2_4 I0_to_Z__I1=0,S=0

Doing analysis at TEMP = 98.097769 and TNOM = 27.000000

Using SPARSE 1.3 as Direct Linear Solver

Initial Transient Solution
--------------------------

Node                                   Voltage
----                                   -------
vdd                                    1.74939
i0                                           0
i1                                           0
s                                            0
xu1.int04                              1.74939
z                                  1.84085e-08
xu1.net_1                             0.025754
xu1.net_3                              1.17884
xu1.sel1_n                             1.74939
xu1.net_0                              1.74939
xu1.net_2                              1.74939
vfix_s#branch                                0
vfix_i1#branch                               0
vin#branch                                   0
vdd#branch                        -1.56371e-11

 Reference value :  2.33914e-08
 Reference value :  5.82003e-08
 Reference value :  9.20453e-08
 Reference value :  1.26933e-07
 Reference value :  1.63388e-07
 Reference value :  2.00005e-07
 Reference value :  2.36575e-07
 Reference value :  2.73763e-07
 Reference value :  3.13313e-07
No. of Data Rows : 68034

  Measurements for Transient Analysis

tplh                =  4.65169e-09 targ=  3.09681e-08 trig=  2.63164e-08
tphl                =  5.26560e-09 targ=  1.06215e-07 trig=  1.00949e-07
i_vdd_avg           =  -1.88091e-06 from=  1.00000e-08 to=  3.30003e-07
power_avg_uw        =  3.29045e+00


Total analysis time (seconds) = 2.6347

Total elapsed time (seconds) = 2.729 

Total DRAM available = 16384.000 MB.
DRAM currently available =  177.281 MB.
Maximum ngspice program size =   17.516 MB.
Current ngspice program size =   17.516 MB.

