
Note: No compatibility mode selected!


Circuit: GF180MCU library cell inv_4 I_to_ZN

Doing analysis at TEMP = 57.575430 and TNOM = 27.000000

Using SPARSE 1.3 as Direct Linear Solver

Initial Transient Solution
--------------------------

Node                                   Voltage
----                                   -------
vdd                                    1.88271
i                                            0
zn                                     1.88271
vin#branch                                   0
vdd#branch                        -7.65051e-12

 Reference value :  4.79380e-08
 Reference value :  1.20444e-07
 Reference value :  1.96368e-07
 Reference value :  2.71214e-07
No. of Data Rows : 68032

  Measurements for Transient Analysis

tphl                =  1.97170e-09 targ=  2.76645e-08 trig=  2.56928e-08
tplh                =  3.66380e-09 targ=  1.02742e-07 trig=  9.90783e-08
i_vdd_avg           =  -2.39753e-06 from=  1.00000e-08 to=  3.30004e-07
power_avg_uw        =  4.51385e+00


Total analysis time (seconds) = 1.2449

Total elapsed time (seconds) = 1.333 

Total DRAM available = 16384.000 MB.
DRAM currently available =  367.391 MB.
Maximum ngspice program size =   16.906 MB.
Current ngspice program size =   16.906 MB.

