
Note: No compatibility mode selected!


Circuit: GF180MCU library cell aoi21_1 A1_to_ZN__A2=1,B=0

Doing analysis at TEMP = 85.151079 and TNOM = 27.000000

Using SPARSE 1.3 as Direct Linear Solver

Initial Transient Solution
--------------------------

Node                                   Voltage
----                                   -------
vdd                                    1.97114
a1                                           0
a2                                     1.97114
b                                            0
xu1.net_0                          1.14977e-09
zn                                     1.97114
xu1.net_1                              1.97114
vfix_b#branch                                0
vfix_a2#branch                               0
vin#branch                                   0
vdd#branch                        -4.27401e-12

 Reference value :  6.57706e-08
 Reference value :  1.58224e-07
 Reference value :  2.51591e-07
No. of Data Rows : 68034

  Measurements for Transient Analysis

tphl                =  3.26192e-09 targ=  2.90884e-08 trig=  2.58265e-08
tplh                =  7.58286e-09 targ=  1.07062e-07 trig=  9.94796e-08
i_vdd_avg           =  -8.18831e-07 from=  1.00000e-08 to=  3.30004e-07
power_avg_uw        =  1.61403e+00


Total analysis time (seconds) = 0.966093

Total elapsed time (seconds) = 1.054 

Total DRAM available = 16384.000 MB.
DRAM currently available =  361.516 MB.
Maximum ngspice program size =   17.297 MB.
Current ngspice program size =   17.297 MB.

