
Note: No compatibility mode selected!


Circuit: GF180MCU library cell aoi21_4 A1_to_ZN__A2=1,B=0

Doing analysis at TEMP = 12.415678 and TNOM = 27.000000

Using SPARSE 1.3 as Direct Linear Solver

Initial Transient Solution
--------------------------

Node                                   Voltage
----                                   -------
vdd                                    1.64281
a1                                           0
a2                                     1.64281
b                                            0
xu1.net_0_0                        3.11802e-12
zn                                     1.64281
xu1.net_0_1                        3.11812e-12
xu1.net_0_2                        3.11802e-12
xu1.net_0_3                        3.11812e-12
xu1.net_1                              1.64281
vfix_b#branch                                0
vfix_a2#branch                               0
vin#branch                                   0
vdd#branch                        -1.32259e-11

 Reference value :  1.95814e-08
 Reference value :  4.68749e-08
 Reference value :  7.45349e-08
 Reference value :  1.01625e-07
 Reference value :  1.29592e-07
 Reference value :  1.58402e-07
 Reference value :  1.85913e-07
 Reference value :  2.13310e-07
 Reference value :  2.40955e-07
 Reference value :  2.68537e-07
 Reference value :  2.97527e-07
 Reference value :  3.24767e-07
No. of Data Rows : 68030

  Measurements for Transient Analysis

tphl                =  3.37025e-09 targ=  2.99789e-08 trig=  2.66087e-08
tplh                =  7.98081e-09 targ=  1.09807e-07 trig=  1.01826e-07
i_vdd_avg           =  -1.62499e-06 from=  1.00000e-08 to=  3.30002e-07
power_avg_uw        =  2.66954e+00


Total analysis time (seconds) = 3.64392

Total elapsed time (seconds) = 3.739 

Total DRAM available = 16384.000 MB.
DRAM currently available =   87.641 MB.
Maximum ngspice program size =   19.469 MB.
Current ngspice program size =   19.469 MB.

