
Note: No compatibility mode selected!


Circuit: GF180MCU library cell mux2_4 I0_to_Z__I1=0,S=0

Doing analysis at TEMP = 11.021434 and TNOM = 27.000000

Using SPARSE 1.3 as Direct Linear Solver

Initial Transient Solution
--------------------------

Node                                   Voltage
----                                   -------
vdd                                    1.88135
i0                                           0
i1                                           0
s                                            0
xu1.int04                              1.88135
z                                  1.40141e-08
xu1.net_1                          0.000120665
xu1.net_3                              1.13639
xu1.sel1_n                             1.88135
xu1.net_0                              1.88135
xu1.net_2                              1.88135
vfix_s#branch                                0
vfix_i1#branch                               0
vin#branch                                   0
vdd#branch                         -1.5847e-11

 Reference value :  2.31964e-08
 Reference value :  5.86083e-08
 Reference value :  9.62233e-08
 Reference value :  1.32184e-07
 Reference value :  1.68789e-07
 Reference value :  2.04393e-07
 Reference value :  2.39858e-07
 Reference value :  2.76259e-07
 Reference value :  3.14554e-07
No. of Data Rows : 68032

  Measurements for Transient Analysis

tplh                =  4.02334e-09 targ=  2.91988e-08 trig=  2.51754e-08
tphl                =  4.04488e-09 targ=  1.01571e-07 trig=  9.75262e-08
i_vdd_avg           =  -2.64306e-06 from=  1.00000e-08 to=  3.30004e-07
power_avg_uw        =  4.97251e+00


Total analysis time (seconds) = 2.56829

Total elapsed time (seconds) = 2.655 

Total DRAM available = 16384.000 MB.
DRAM currently available =  276.172 MB.
Maximum ngspice program size =   16.578 MB.
Current ngspice program size =   16.578 MB.

