
Note: No compatibility mode selected!


Circuit: GF180MCU library cell nand2_4 A1_to_ZN__A2=1

Doing analysis at TEMP = 7.394388 and TNOM = 27.000000

Using SPARSE 1.3 as Direct Linear Solver

Initial Transient Solution
--------------------------

Node                                   Voltage
----                                   -------
vdd                                    1.64211
a1                                           0
a2                                     1.64211
xu1.net_0_0                        1.83378e-12
zn                                     1.64211
xu1.net_0_1                        1.83378e-12
xu1.net_0_2                        1.83378e-12
xu1.net_0_3                        1.83378e-12
vfix_a2#branch                               0
vin#branch                                   0
vdd#branch                        -6.60926e-12

 Reference value :  2.60975e-08
 Reference value :  6.70483e-08
 Reference value :  1.10884e-07
 Reference value :  1.50504e-07
 Reference value :  1.92743e-07
 Reference value :  2.35488e-07
 Reference value :  2.75799e-07
 Reference value :  3.17974e-07
No. of Data Rows : 68032

  Measurements for Transient Analysis

tphl                =  2.15606e-09 targ=  2.92139e-08 trig=  2.70579e-08
tplh                =  3.12344e-09 targ=  1.06297e-07 trig=  1.03174e-07
i_vdd_avg           =  -4.98454e-07 from=  1.00000e-08 to=  3.30004e-07
power_avg_uw        =  8.18514e-01


Total analysis time (seconds) = 2.27871

Total elapsed time (seconds) = 2.368 

Total DRAM available = 16384.000 MB.
DRAM currently available =  286.500 MB.
Maximum ngspice program size =   17.719 MB.
Current ngspice program size =   17.719 MB.

