
Note: No compatibility mode selected!


Circuit: GF180MCU library cell nor2_4 A1_to_ZN__A2=0

Doing analysis at TEMP = 60.752732 and TNOM = 27.000000

Using SPARSE 1.3 as Direct Linear Solver

Initial Transient Solution
--------------------------

Node                                   Voltage
----                                   -------
vdd                                    1.94543
a1                                           0
a2                                           0
zn                                     1.94543
xu1.net_0_0                            1.94543
xu1.net_0_1                            1.94543
xu1.net_0_2                            1.94543
xu1.net_0_3                            1.94543
vfix_a2#branch                               0
vin#branch                                   0
vdd#branch                        -1.58686e-11

 Reference value :  2.51010e-08
 Reference value :  6.59760e-08
 Reference value :  1.05484e-07
 Reference value :  1.47934e-07
 Reference value :  1.87786e-07
 Reference value :  2.27091e-07
 Reference value :  2.67554e-07
 Reference value :  3.09779e-07
No. of Data Rows : 68034

  Measurements for Transient Analysis

tphl                =  4.60098e-10 targ=  2.45918e-08 trig=  2.41317e-08
tplh                =  1.40422e-09 targ=  9.57994e-08 trig=  9.43952e-08
i_vdd_avg           =  -6.42619e-07 from=  1.00000e-08 to=  3.30004e-07
power_avg_uw        =  1.25017e+00


Total analysis time (seconds) = 2.47964

Total elapsed time (seconds) = 2.615 

Total DRAM available = 16384.000 MB.
DRAM currently available =   94.031 MB.
Maximum ngspice program size =   19.469 MB.
Current ngspice program size =   19.469 MB.

