
Note: No compatibility mode selected!


Circuit: GF180MCU library cell oai21_1 A1_to_ZN__A2=0,B=1

Doing analysis at TEMP = 46.564671 and TNOM = 27.000000

Using SPARSE 1.3 as Direct Linear Solver

Initial Transient Solution
--------------------------

Node                                   Voltage
----                                   -------
vdd                                    1.64692
a1                                           0
a2                                           0
b                                      1.64692
zn                                     1.64692
xu1.net_0                          1.49092e-10
xu1.net_1                              1.64692
vfix_b#branch                                0
vfix_a2#branch                               0
vin#branch                                   0
vdd#branch                        -3.32919e-12

 Reference value :  6.34629e-08
 Reference value :  1.61948e-07
 Reference value :  2.53713e-07
No. of Data Rows : 68032

  Measurements for Transient Analysis

tphl                =  2.56297e-09 targ=  3.07207e-08 trig=  2.81577e-08
tplh                =  4.68558e-09 targ=  1.11159e-07 trig=  1.06473e-07
i_vdd_avg           =  -1.35218e-07 from=  1.00000e-08 to=  3.30003e-07
power_avg_uw        =  2.22693e-01


Total analysis time (seconds) = 0.982049

Total elapsed time (seconds) = 1.071 

Total DRAM available = 16384.000 MB.
DRAM currently available =  313.406 MB.
Maximum ngspice program size =   18.562 MB.
Current ngspice program size =   18.562 MB.

