
Note: No compatibility mode selected!


Circuit: GF180MCU library cell xor2_1 A1_to_Z__A2=0

Doing analysis at TEMP = 43.815962 and TNOM = 27.000000

Using SPARSE 1.3 as Direct Linear Solver

Initial Transient Solution
--------------------------

Node                                   Voltage
----                                   -------
vdd                                    1.88349
a1                                           0
a2                                           0
xu1.i                                  1.88349
z                                  5.42399e-08
xu1.net_0                          1.53476e-09
xu1.net_2                              1.88349
xu1.net_1                             0.841612
vfix_a2#branch                               0
vin#branch                                   0
vdd#branch                        -1.08265e-11

 Reference value :  4.17185e-08
 Reference value :  1.04623e-07
 Reference value :  1.66864e-07
 Reference value :  2.27603e-07
 Reference value :  2.88544e-07
No. of Data Rows : 68032

  Measurements for Transient Analysis

tplh                =  1.14807e-08 targ=  4.01937e-08 trig=  2.87130e-08
tphl                =  5.68072e-09 targ=  1.13820e-07 trig=  1.08139e-07
i_vdd_avg           =  -1.20756e-06 from=  1.00000e-08 to=  3.30004e-07
power_avg_uw        =  2.27442e+00


Total analysis time (seconds) = 1.6144

Total elapsed time (seconds) = 1.699 

Total DRAM available = 16384.000 MB.
DRAM currently available =  214.109 MB.
Maximum ngspice program size =   19.375 MB.
Current ngspice program size =   19.375 MB.

