
Note: No compatibility mode selected!


Circuit: GF180MCU library cell oai21_4 A1_to_ZN__A2=0,B=1

Doing analysis at TEMP = -2.719494 and TNOM = 27.000000

Using SPARSE 1.3 as Direct Linear Solver

Initial Transient Solution
--------------------------

Node                                   Voltage
----                                   -------
vdd                                    1.68841
a1                                           0
a2                                           0
b                                      1.68841
zn                                     1.68841
xu1.net_0                          1.15349e-12
xu1.net_1_0                            1.68841
xu1.net_1_1                            1.68841
xu1.net_1_2                            1.68841
xu1.net_1_3                            1.68841
vfix_b#branch                                0
vfix_a2#branch                               0
vin#branch                                   0
vdd#branch                        -1.35878e-11

 Reference value :  1.80864e-08
 Reference value :  4.57006e-08
 Reference value :  7.37056e-08
 Reference value :  1.01684e-07
 Reference value :  1.28724e-07
 Reference value :  1.56609e-07
 Reference value :  1.84876e-07
 Reference value :  2.14391e-07
 Reference value :  2.42826e-07
 Reference value :  2.71324e-07
 Reference value :  3.00319e-07
 Reference value :  3.28499e-07
No. of Data Rows : 68034

  Measurements for Transient Analysis

tphl                =  9.14461e-10 targ=  2.51935e-08 trig=  2.42790e-08
tplh                =  2.88226e-09 targ=  9.77194e-08 trig=  9.48371e-08
i_vdd_avg           =  -7.10365e-07 from=  1.00000e-08 to=  3.30004e-07
power_avg_uw        =  1.19939e+00


Total analysis time (seconds) = 3.48063

Total elapsed time (seconds) = 3.575 

Total DRAM available = 16384.000 MB.
DRAM currently available =   80.484 MB.
Maximum ngspice program size =   17.078 MB.
Current ngspice program size =   17.078 MB.

