
Note: No compatibility mode selected!


Circuit: GF180MCU library cell nor2_4 A1_to_ZN__A2=0

Doing analysis at TEMP = 18.561973 and TNOM = 27.000000

Using SPARSE 1.3 as Direct Linear Solver

Initial Transient Solution
--------------------------

Node                                   Voltage
----                                   -------
vdd                                    1.68175
a1                                           0
a2                                           0
zn                                     1.68175
xu1.net_0_0                            1.68175
xu1.net_0_1                            1.68175
xu1.net_0_2                            1.68175
xu1.net_0_3                            1.68175
vfix_a2#branch                               0
vin#branch                                   0
vdd#branch                        -1.35401e-11

 Reference value :  2.55925e-08
 Reference value :  6.69945e-08
 Reference value :  1.09836e-07
 Reference value :  1.51401e-07
 Reference value :  1.93029e-07
 Reference value :  2.33799e-07
 Reference value :  2.74746e-07
 Reference value :  3.15931e-07
No. of Data Rows : 68030

  Measurements for Transient Analysis

tphl                =  2.82419e-09 targ=  2.90727e-08 trig=  2.62485e-08
tplh                =  7.64810e-09 targ=  1.08394e-07 trig=  1.00745e-07
i_vdd_avg           =  -1.81254e-06 from=  1.00000e-08 to=  3.30001e-07
power_avg_uw        =  3.04823e+00


Total analysis time (seconds) = 2.3927

Total elapsed time (seconds) = 2.472 

Total DRAM available = 16384.000 MB.
DRAM currently available =  214.109 MB.
Maximum ngspice program size =   16.844 MB.
Current ngspice program size =   16.844 MB.

