
Note: No compatibility mode selected!


Circuit: GF180MCU library cell xor2_1 A1_to_Z__A2=0

Doing analysis at TEMP = 97.689958 and TNOM = 27.000000

Using SPARSE 1.3 as Direct Linear Solver

Initial Transient Solution
--------------------------

Node                                   Voltage
----                                   -------
vdd                                     1.6346
a1                                           0
a2                                           0
xu1.i                                   1.6346
z                                  6.84606e-08
xu1.net_0                          2.49735e-08
xu1.net_2                               1.6346
xu1.net_1                             0.680703
vfix_a2#branch                               0
vin#branch                                   0
vdd#branch                        -1.23388e-11

 Reference value :  3.87142e-08
 Reference value :  9.94892e-08
 Reference value :  1.59141e-07
 Reference value :  2.16644e-07
 Reference value :  2.72804e-07
 Reference value :  3.33171e-07
No. of Data Rows : 68030

  Measurements for Transient Analysis

tplh                =  2.73185e-08 targ=  5.69094e-08 trig=  2.95908e-08
tphl                =  9.50804e-09 targ=  1.20281e-07 trig=  1.10772e-07
i_vdd_avg           =  -1.67354e-06 from=  1.00000e-08 to=  3.30001e-07
power_avg_uw        =  2.73558e+00


Total analysis time (seconds) = 1.58455

Total elapsed time (seconds) = 1.664 

Total DRAM available = 16384.000 MB.
DRAM currently available =  361.516 MB.
Maximum ngspice program size =   18.125 MB.
Current ngspice program size =   18.125 MB.

