
Note: No compatibility mode selected!


Circuit: GF180MCU library cell nor2_4 A1_to_ZN__A2=0

Doing analysis at TEMP = -33.110977 and TNOM = 27.000000

Using SPARSE 1.3 as Direct Linear Solver

Initial Transient Solution
--------------------------

Node                                   Voltage
----                                   -------
vdd                                    1.86205
a1                                           0
a2                                           0
zn                                     1.86205
xu1.net_0_0                            1.86205
xu1.net_0_1                            1.86205
xu1.net_0_2                            1.86205
xu1.net_0_3                            1.86205
vfix_a2#branch                               0
vin#branch                                   0
vdd#branch                        -1.49764e-11

 Reference value :  2.56175e-08
 Reference value :  6.56379e-08
 Reference value :  1.05853e-07
 Reference value :  1.44978e-07
 Reference value :  1.81493e-07
 Reference value :  2.20058e-07
 Reference value :  2.58803e-07
 Reference value :  2.98423e-07
 Reference value :  3.36313e-07
No. of Data Rows : 68032

  Measurements for Transient Analysis

tphl                =  1.78004e-09 targ=  3.12628e-08 trig=  2.94827e-08
tplh                =  3.80301e-09 targ=  1.14251e-07 trig=  1.10448e-07
i_vdd_avg           =  -3.51946e-07 from=  1.00000e-08 to=  3.30003e-07
power_avg_uw        =  6.55340e-01


Total analysis time (seconds) = 2.42011

Total elapsed time (seconds) = 2.505 

Total DRAM available = 16384.000 MB.
DRAM currently available =  361.516 MB.
Maximum ngspice program size =   17.016 MB.
Current ngspice program size =   17.016 MB.

