
Note: No compatibility mode selected!


Circuit: GF180MCU library cell nand3_4 A1_to_ZN__A2=1,A3=1

Doing analysis at TEMP = 78.320030 and TNOM = 27.000000

Using SPARSE 1.3 as Direct Linear Solver

Initial Transient Solution
--------------------------

Node                                   Voltage
----                                   -------
vdd                                    1.86495
a1                                           0
a2                                     1.86495
a3                                     1.86495
xu1.net_1_3                         7.4973e-10
xu1.net_0                          1.49946e-09
xu1.net_1_2                         7.4973e-10
xu1.net_1_1                         7.4973e-10
xu1.net_1_0                         7.4973e-10
xu1.net_0_0                        1.49946e-09
zn                                     1.86495
vfix_a3#branch                               0
vfix_a2#branch                               0
vin#branch                                   0
vdd#branch                        -7.84405e-12

 Reference value :  2.45440e-08
 Reference value :  5.48290e-08
 Reference value :  8.31540e-08
 Reference value :  1.13610e-07
 Reference value :  1.41555e-07
 Reference value :  1.69950e-07
 Reference value :  1.97859e-07
 Reference value :  2.24134e-07
 Reference value :  2.50589e-07
 Reference value :  2.77820e-07
 Reference value :  3.06155e-07
 Reference value :  3.33870e-07
No. of Data Rows : 68030

  Measurements for Transient Analysis

tphl                =  2.72431e-10 targ=  2.42932e-08 trig=  2.40207e-08
tplh                =  3.05009e-10 targ=  9.43672e-08 trig=  9.40622e-08
i_vdd_avg           =  -1.89782e-07 from=  1.00000e-08 to=  3.30000e-07
power_avg_uw        =  3.53935e-01


Total analysis time (seconds) = 3.34853

Total elapsed time (seconds) = 3.408 

Total DRAM available = 16384.000 MB.
DRAM currently available =  367.391 MB.
Maximum ngspice program size =   17.469 MB.
Current ngspice program size =   17.469 MB.

