
Note: No compatibility mode selected!


Circuit: GF180MCU library cell nand3_4 A1_to_ZN__A2=1,A3=1

Doing analysis at TEMP = 40.152365 and TNOM = 27.000000

Using SPARSE 1.3 as Direct Linear Solver

Initial Transient Solution
--------------------------

Node                                   Voltage
----                                   -------
vdd                                    1.80021
a1                                           0
a2                                     1.80021
a3                                     1.80021
xu1.net_1_3                        3.99955e-11
xu1.net_0                          7.99909e-11
xu1.net_1_2                        3.99954e-11
xu1.net_1_1                        3.99955e-11
xu1.net_1_0                        3.99954e-11
xu1.net_0_0                        7.99909e-11
zn                                     1.80021
vfix_a3#branch                               0
vfix_a2#branch                               0
vin#branch                                   0
vdd#branch                        -7.26015e-12

 Reference value :  2.00164e-08
 Reference value :  4.93140e-08
 Reference value :  7.77290e-08
 Reference value :  1.05921e-07
 Reference value :  1.34931e-07
 Reference value :  1.63671e-07
 Reference value :  1.92494e-07
 Reference value :  2.21719e-07
 Reference value :  2.49674e-07
 Reference value :  2.77516e-07
 Reference value :  3.04256e-07
 Reference value :  3.34281e-07
No. of Data Rows : 68030

  Measurements for Transient Analysis

tphl                =  2.51793e-09 targ=  2.83612e-08 trig=  2.58433e-08
tplh                =  3.15896e-09 targ=  1.02689e-07 trig=  9.95298e-08
i_vdd_avg           =  -1.23927e-06 from=  1.00000e-08 to=  3.30001e-07
power_avg_uw        =  2.23094e+00


Total analysis time (seconds) = 3.29903

Total elapsed time (seconds) = 3.377 

Total DRAM available = 16384.000 MB.
DRAM currently available =  102.500 MB.
Maximum ngspice program size =   18.547 MB.
Current ngspice program size =   18.547 MB.

