
Note: No compatibility mode selected!


Circuit: GF180MCU library cell mux2_4 I0_to_Z__I1=0,S=0

Doing analysis at TEMP = 93.252162 and TNOM = 27.000000

Using SPARSE 1.3 as Direct Linear Solver

Initial Transient Solution
--------------------------

Node                                   Voltage
----                                   -------
vdd                                    1.73722
i0                                           0
i1                                           0
s                                            0
xu1.int04                              1.73722
z                                  1.82429e-08
xu1.net_1                            0.0231419
xu1.net_3                              1.16205
xu1.sel1_n                             1.73722
xu1.net_0                              1.73722
xu1.net_2                              1.73722
vfix_s#branch                                0
vfix_i1#branch                               0
vin#branch                                   0
vdd#branch                        -1.53504e-11

 Reference value :  2.32614e-08
 Reference value :  5.90739e-08
 Reference value :  9.70589e-08
 Reference value :  1.34055e-07
 Reference value :  1.71715e-07
 Reference value :  2.08869e-07
 Reference value :  2.46434e-07
 Reference value :  2.82065e-07
 Reference value :  3.19155e-07
No. of Data Rows : 68030

  Measurements for Transient Analysis

tplh                =  4.83169e-09 targ=  3.43824e-08 trig=  2.95507e-08
tphl                =  6.46131e-09 targ=  1.17113e-07 trig=  1.10652e-07
i_vdd_avg           =  -1.27629e-06 from=  1.00000e-08 to=  3.30000e-07
power_avg_uw        =  2.21719e+00


Total analysis time (seconds) = 2.59798

Total elapsed time (seconds) = 2.691 

Total DRAM available = 16384.000 MB.
DRAM currently available =  119.750 MB.
Maximum ngspice program size =   17.766 MB.
Current ngspice program size =   17.766 MB.

