
Note: No compatibility mode selected!


Circuit: GF180MCU library cell xor2_4 A1_to_Z__A2=0

Doing analysis at TEMP = 56.818904 and TNOM = 27.000000

Using SPARSE 1.3 as Direct Linear Solver

Initial Transient Solution
--------------------------

Node                                   Voltage
----                                   -------
vdd                                    1.83665
a1                                           0
a2                                           0
xu1.net_2                            0.0191065
xu1.i                                  1.83665
xu1.net_0                          3.11164e-10
xu1.z_neg                              1.83665
z                                  1.61848e-08
xu1.net_1                              1.83665
vfix_a2#branch                               0
vin#branch                                   0
vdd#branch                        -1.33386e-11

 Reference value :  2.48425e-08
 Reference value :  6.15982e-08
 Reference value :  9.84382e-08
 Reference value :  1.33819e-07
 Reference value :  1.69919e-07
 Reference value :  2.06638e-07
 Reference value :  2.44098e-07
 Reference value :  2.81454e-07
 Reference value :  3.16894e-07
No. of Data Rows : 68032

  Measurements for Transient Analysis

tplh                =  3.32396e-09 targ=  3.30143e-08 trig=  2.96903e-08
tphl                =  5.61181e-09 targ=  1.16683e-07 trig=  1.11071e-07
i_vdd_avg           =  -5.11101e-07 from=  1.00000e-08 to=  3.30004e-07
power_avg_uw        =  9.38712e-01


Total analysis time (seconds) = 2.56245

Total elapsed time (seconds) = 2.660 

Total DRAM available = 16384.000 MB.
DRAM currently available =  102.500 MB.
Maximum ngspice program size =   16.844 MB.
Current ngspice program size =   16.844 MB.

