
Note: No compatibility mode selected!


Circuit: GF180MCU library cell oai21_4 A1_to_ZN__A2=0,B=1

Doing analysis at TEMP = 36.820172 and TNOM = 27.000000

Using SPARSE 1.3 as Direct Linear Solver

Initial Transient Solution
--------------------------

Node                                   Voltage
----                                   -------
vdd                                     1.8679
a1                                           0
a2                                           0
b                                       1.8679
zn                                      1.8679
xu1.net_0                          5.80692e-11
xu1.net_1_0                             1.8679
xu1.net_1_1                             1.8679
xu1.net_1_2                             1.8679
xu1.net_1_3                             1.8679
vfix_b#branch                                0
vfix_a2#branch                               0
vin#branch                                   0
vdd#branch                        -1.50531e-11

 Reference value :  1.86464e-08
 Reference value :  4.69570e-08
 Reference value :  7.55320e-08
 Reference value :  1.05052e-07
 Reference value :  1.33232e-07
 Reference value :  1.60707e-07
 Reference value :  1.87978e-07
 Reference value :  2.15997e-07
 Reference value :  2.43572e-07
 Reference value :  2.72637e-07
 Reference value :  3.00637e-07
 Reference value :  3.29422e-07
No. of Data Rows : 68032

  Measurements for Transient Analysis

tphl                =  1.48647e-09 targ=  2.96737e-08 trig=  2.81873e-08
tplh                =  3.28802e-09 targ=  1.09850e-07 trig=  1.06562e-07
i_vdd_avg           =  -3.77820e-07 from=  1.00000e-08 to=  3.30002e-07
power_avg_uw        =  7.05731e-01


Total analysis time (seconds) = 3.46785

Total elapsed time (seconds) = 3.558 

Total DRAM available = 16384.000 MB.
DRAM currently available =  177.281 MB.
Maximum ngspice program size =   18.516 MB.
Current ngspice program size =   18.516 MB.

