
Note: No compatibility mode selected!


Circuit: GF180MCU library cell inv_1 I_to_ZN

Doing analysis at TEMP = 96.416242 and TNOM = 27.000000

Using SPARSE 1.3 as Direct Linear Solver

Initial Transient Solution
--------------------------

Node                                   Voltage
----                                   -------
vdd                                    1.73297
i                                            0
zn                                     1.73297
vin#branch                                   0
vdd#branch                        -2.00077e-12

 Reference value :  1.47562e-07
No. of Data Rows : 68032

  Measurements for Transient Analysis

tphl                =  2.95780e-09 targ=  3.12828e-08 trig=  2.83250e-08
tplh                =  4.92219e-09 targ=  1.11897e-07 trig=  1.06975e-07
i_vdd_avg           =  -3.71991e-07 from=  1.00000e-08 to=  3.30002e-07
power_avg_uw        =  6.44650e-01


Total analysis time (seconds) = 0.416773

Total elapsed time (seconds) = 0.501 

Total DRAM available = 16384.000 MB.
DRAM currently available =  361.516 MB.
Maximum ngspice program size =   17.625 MB.
Current ngspice program size =   17.625 MB.

