
Note: No compatibility mode selected!


Circuit: GF180MCU library cell nand2_1 A1_to_ZN__A2=1

Doing analysis at TEMP = -3.802181 and TNOM = 27.000000

Using SPARSE 1.3 as Direct Linear Solver

Initial Transient Solution
--------------------------

Node                                   Voltage
----                                   -------
vdd                                    1.79227
a1                                           0
a2                                     1.79227
xu1.net_0                          4.81955e-13
zn                                     1.79227
vfix_a2#branch                               0
vin#branch                                   0
vdd#branch                        -1.80233e-12

 Reference value :  8.87423e-08
 Reference value :  2.23022e-07
No. of Data Rows : 68032

  Measurements for Transient Analysis

tphl                =  5.18898e-09 targ=  2.92464e-08 trig=  2.40574e-08
tplh                =  8.09641e-09 targ=  1.02269e-07 trig=  9.41722e-08
i_vdd_avg           =  -1.51391e-06 from=  1.00000e-08 to=  3.30002e-07
power_avg_uw        =  2.71332e+00


Total analysis time (seconds) = 0.697849

Total elapsed time (seconds) = 0.783 

Total DRAM available = 16384.000 MB.
DRAM currently available =   94.031 MB.
Maximum ngspice program size =   18.219 MB.
Current ngspice program size =   18.219 MB.

