
Note: No compatibility mode selected!


Circuit: GF180MCU library cell inv_4 I_to_ZN

Doing analysis at TEMP = -17.974584 and TNOM = 27.000000

Using SPARSE 1.3 as Direct Linear Solver

Initial Transient Solution
--------------------------

Node                                   Voltage
----                                   -------
vdd                                    1.65864
i                                            0
zn                                     1.65864
vin#branch                                   0
vdd#branch                        -6.67461e-12

 Reference value :  5.30512e-08
 Reference value :  1.26345e-07
 Reference value :  2.00026e-07
 Reference value :  2.76905e-07
No. of Data Rows : 68034

  Measurements for Transient Analysis

tphl                =  2.70748e-09 targ=  2.96918e-08 trig=  2.69844e-08
tplh                =  4.65540e-09 targ=  1.07608e-07 trig=  1.02953e-07
i_vdd_avg           =  -1.50236e-06 from=  1.00000e-08 to=  3.30005e-07
power_avg_uw        =  2.49188e+00


Total analysis time (seconds) = 1.33125

Total elapsed time (seconds) = 1.408 

Total DRAM available = 16384.000 MB.
DRAM currently available =  120.797 MB.
Maximum ngspice program size =   17.484 MB.
Current ngspice program size =   17.484 MB.

