
Note: No compatibility mode selected!


Circuit: GF180MCU library cell inv_1 I_to_ZN

Doing analysis at TEMP = 98.776077 and TNOM = 27.000000

Using SPARSE 1.3 as Direct Linear Solver

Initial Transient Solution
--------------------------

Node                                   Voltage
----                                   -------
vdd                                    1.97564
i                                            0
zn                                     1.97564
vin#branch                                   0
vdd#branch                        -2.31091e-12

 Reference value :  2.10431e-07
No. of Data Rows : 68034

  Measurements for Transient Analysis

tphl                =  4.44928e-09 targ=  2.95311e-08 trig=  2.50818e-08
tplh                =  9.81738e-09 targ=  1.07063e-07 trig=  9.72454e-08
i_vdd_avg           =  -2.38217e-06 from=  1.00000e-08 to=  3.30005e-07
power_avg_uw        =  4.70630e+00


Total analysis time (seconds) = 0.354959

Total elapsed time (seconds) = 0.420 

Total DRAM available = 16384.000 MB.
DRAM currently available =  461.094 MB.
Maximum ngspice program size =   15.609 MB.
Current ngspice program size =   15.609 MB.

