
Note: No compatibility mode selected!


Circuit: GF180MCU library cell nand3_1 A1_to_ZN__A2=1,A3=1

Doing analysis at TEMP = 61.792720 and TNOM = 27.000000

Using SPARSE 1.3 as Direct Linear Solver

Initial Transient Solution
--------------------------

Node                                   Voltage
----                                   -------
vdd                                    1.89353
a1                                           0
a2                                     1.89353
a3                                     1.89353
xu1.net_1                          2.23475e-10
xu1.net_0                          4.46949e-10
zn                                     1.89353
vfix_a3#branch                               0
vfix_a2#branch                               0
vin#branch                                   0
vdd#branch                         -1.9309e-12

 Reference value :  6.90091e-08
 Reference value :  1.72206e-07
 Reference value :  2.68531e-07
No. of Data Rows : 68030

  Measurements for Transient Analysis

tphl                =  4.19379e-09 targ=  2.85146e-08 trig=  2.43208e-08
tplh                =  4.89944e-09 targ=  9.98618e-08 trig=  9.49623e-08
i_vdd_avg           =  -8.67535e-07 from=  1.00000e-08 to=  3.30001e-07
power_avg_uw        =  1.64270e+00


Total analysis time (seconds) = 0.979432

Total elapsed time (seconds) = 1.063 

Total DRAM available = 16384.000 MB.
DRAM currently available =  141.359 MB.
Maximum ngspice program size =   17.906 MB.
Current ngspice program size =   17.906 MB.

