
Note: No compatibility mode selected!


Circuit: GF180MCU library cell xor2_4 A1_to_Z__A2=0

Doing analysis at TEMP = 31.774108 and TNOM = 27.000000

Using SPARSE 1.3 as Direct Linear Solver

Initial Transient Solution
--------------------------

Node                                   Voltage
----                                   -------
vdd                                    1.87974
a1                                           0
a2                                           0
xu1.net_2                           0.00613951
xu1.i                                  1.87974
xu1.net_0                          3.66967e-11
xu1.z_neg                              1.87974
z                                  1.49256e-08
xu1.net_1                              1.87974
vfix_a2#branch                               0
vin#branch                                   0
vdd#branch                        -1.35643e-11

 Reference value :  2.41825e-08
 Reference value :  5.99634e-08
 Reference value :  9.59784e-08
 Reference value :  1.37244e-07
 Reference value :  1.82824e-07
 Reference value :  2.34298e-07
 Reference value :  2.90539e-07
No. of Data Rows : 68032

  Measurements for Transient Analysis

tplh                =  2.96118e-09 targ=  2.79341e-08 trig=  2.49729e-08
tphl                =  3.55171e-09 targ=  1.00471e-07 trig=  9.69188e-08
i_vdd_avg           =  -1.67459e-06 from=  1.00000e-08 to=  3.30004e-07
power_avg_uw        =  3.14780e+00


Total analysis time (seconds) = 1.92269

Total elapsed time (seconds) = 2.016 

Total DRAM available = 16384.000 MB.
DRAM currently available =  304.453 MB.
Maximum ngspice program size =   18.359 MB.
Current ngspice program size =   18.359 MB.

