
Note: No compatibility mode selected!


Circuit: GF180MCU library cell nand3_1 A1_to_ZN__A2=1,A3=1

Doing analysis at TEMP = 33.650329 and TNOM = 27.000000

Using SPARSE 1.3 as Direct Linear Solver

Initial Transient Solution
--------------------------

Node                                   Voltage
----                                   -------
vdd                                     1.7989
a1                                           0
a2                                      1.7989
a3                                      1.7989
xu1.net_1                          2.25046e-11
xu1.net_0                          4.50092e-11
zn                                      1.7989
vfix_a3#branch                               0
vfix_a2#branch                               0
vin#branch                                   0
vdd#branch                        -1.81167e-12

 Reference value :  6.56982e-08
 Reference value :  1.69174e-07
 Reference value :  2.64343e-07
No. of Data Rows : 68032

  Measurements for Transient Analysis

tphl                =  5.07407e-09 targ=  3.41594e-08 trig=  2.90853e-08
tplh                =  6.49152e-09 targ=  1.15748e-07 trig=  1.09256e-07
i_vdd_avg           =  -5.06220e-07 from=  1.00000e-08 to=  3.30004e-07
power_avg_uw        =  9.10640e-01


Total analysis time (seconds) = 0.952861

Total elapsed time (seconds) = 1.028 

Total DRAM available = 16384.000 MB.
DRAM currently available =  178.031 MB.
Maximum ngspice program size =   17.000 MB.
Current ngspice program size =   17.000 MB.

