
Note: No compatibility mode selected!


Circuit: GF180MCU library cell inv_1 I_to_ZN

Doing analysis at TEMP = 34.195043 and TNOM = 27.000000

Using SPARSE 1.3 as Direct Linear Solver

Initial Transient Solution
--------------------------

Node                                   Voltage
----                                   -------
vdd                                     1.6468
i                                            0
zn                                      1.6468
vin#branch                                   0
vdd#branch                        -1.65952e-12

 Reference value :  1.37868e-07
No. of Data Rows : 68034

  Measurements for Transient Analysis

tphl                =  4.90664e-09 targ=  3.24806e-08 trig=  2.75739e-08
tplh                =  1.02190e-08 targ=  1.14941e-07 trig=  1.04722e-07
i_vdd_avg           =  -1.10086e-06 from=  1.00000e-08 to=  3.30003e-07
power_avg_uw        =  1.81289e+00


Total analysis time (seconds) = 0.468812

Total elapsed time (seconds) = 0.567 

Total DRAM available = 16384.000 MB.
DRAM currently available =  214.109 MB.
Maximum ngspice program size =   18.828 MB.
Current ngspice program size =   18.828 MB.

