
Note: No compatibility mode selected!


Circuit: GF180MCU library cell aoi21_4 A1_to_ZN__A2=1,B=0

Doing analysis at TEMP = 42.641917 and TNOM = 27.000000

Using SPARSE 1.3 as Direct Linear Solver

Initial Transient Solution
--------------------------

Node                                   Voltage
----                                   -------
vdd                                    1.74203
a1                                           0
a2                                     1.74203
b                                            0
xu1.net_0_0                        5.09063e-11
zn                                     1.74203
xu1.net_0_1                        5.09063e-11
xu1.net_0_2                        5.09063e-11
xu1.net_0_3                        5.09063e-11
xu1.net_1                              1.74203
vfix_b#branch                                0
vfix_a2#branch                               0
vin#branch                                   0
vdd#branch                        -1.40706e-11

 Reference value :  1.71114e-08
 Reference value :  4.45010e-08
 Reference value :  7.26460e-08
 Reference value :  9.99360e-08
 Reference value :  1.27835e-07
 Reference value :  1.55620e-07
 Reference value :  1.83455e-07
 Reference value :  2.12501e-07
 Reference value :  2.40996e-07
 Reference value :  2.67635e-07
 Reference value :  2.95675e-07
 Reference value :  3.24835e-07
No. of Data Rows : 68034

  Measurements for Transient Analysis

tphl                =  3.94542e-09 targ=  3.10597e-08 trig=  2.71143e-08
tplh                =  8.99530e-09 targ=  1.12338e-07 trig=  1.03343e-07
i_vdd_avg           =  -2.31961e-06 from=  1.00000e-08 to=  3.30005e-07
power_avg_uw        =  4.04084e+00


Total analysis time (seconds) = 3.44008

Total elapsed time (seconds) = 3.532 

Total DRAM available = 16384.000 MB.
DRAM currently available =  229.703 MB.
Maximum ngspice program size =   17.922 MB.
Current ngspice program size =   17.922 MB.

