
Note: No compatibility mode selected!


Circuit: GF180MCU library cell mux2_4 I0_to_Z__I1=0,S=0

Doing analysis at TEMP = 21.040281 and TNOM = 27.000000

Using SPARSE 1.3 as Direct Linear Solver

Initial Transient Solution
--------------------------

Node                                   Voltage
----                                   -------
vdd                                    1.94608
i0                                           0
i1                                           0
s                                            0
xu1.int04                              1.94608
z                                  1.42324e-08
xu1.net_1                          0.000332069
xu1.net_3                               1.2046
xu1.sel1_n                             1.94608
xu1.net_0                              1.94608
xu1.net_2                              1.94608
vfix_s#branch                                0
vfix_i1#branch                               0
vin#branch                                   0
vdd#branch                        -1.64529e-11

 Reference value :  2.37914e-08
 Reference value :  6.26294e-08
 Reference value :  9.98194e-08
 Reference value :  1.35906e-07
 Reference value :  1.72541e-07
 Reference value :  2.09294e-07
 Reference value :  2.47234e-07
 Reference value :  2.82091e-07
 Reference value :  3.17266e-07
No. of Data Rows : 68030

  Measurements for Transient Analysis

tplh                =  3.67540e-09 targ=  3.15989e-08 trig=  2.79235e-08
tphl                =  4.68782e-09 targ=  1.10458e-07 trig=  1.05770e-07
i_vdd_avg           =  -1.72134e-06 from=  1.00000e-08 to=  3.30001e-07
power_avg_uw        =  3.34986e+00


Total analysis time (seconds) = 2.52515

Total elapsed time (seconds) = 2.622 

Total DRAM available = 16384.000 MB.
DRAM currently available =  230.797 MB.
Maximum ngspice program size =   17.812 MB.
Current ngspice program size =   17.812 MB.

