
Note: No compatibility mode selected!


Circuit: GF180MCU library cell oai21_1 A1_to_ZN__A2=0,B=1

Doing analysis at TEMP = 120.945020 and TNOM = 27.000000

Using SPARSE 1.3 as Direct Linear Solver

Initial Transient Solution
--------------------------

Node                                   Voltage
----                                   -------
vdd                                    1.80535
a1                                           0
a2                                           0
b                                      1.80535
zn                                     1.80535
xu1.net_0                          2.14548e-08
xu1.net_1                              1.80535
vfix_b#branch                                0
vfix_a2#branch                               0
vin#branch                                   0
vdd#branch                        -5.75524e-12

 Reference value :  6.22900e-08
 Reference value :  1.56467e-07
 Reference value :  2.50570e-07
No. of Data Rows : 68030

  Measurements for Transient Analysis

tphl                =  4.74703e-09 targ=  3.12508e-08 trig=  2.65037e-08
tplh                =  1.13129e-08 targ=  1.12824e-07 trig=  1.01511e-07
i_vdd_avg           =  -9.02210e-07 from=  1.00000e-08 to=  3.30002e-07
power_avg_uw        =  1.62881e+00


Total analysis time (seconds) = 1.16841

Total elapsed time (seconds) = 1.254 

Total DRAM available = 16384.000 MB.
DRAM currently available =   87.641 MB.
Maximum ngspice program size =   18.484 MB.
Current ngspice program size =   18.484 MB.

