
Note: No compatibility mode selected!


Circuit: GF180MCU library cell nand2_4 A1_to_ZN__A2=1

Doing analysis at TEMP = 34.668526 and TNOM = 27.000000

Using SPARSE 1.3 as Direct Linear Solver

Initial Transient Solution
--------------------------

Node                                   Voltage
----                                   -------
vdd                                    1.90493
a1                                           0
a2                                     1.90493
xu1.net_0_0                         2.3628e-11
zn                                     1.90493
xu1.net_0_1                         2.3628e-11
xu1.net_0_2                         2.3628e-11
xu1.net_0_3                         2.3628e-11
vfix_a2#branch                               0
vin#branch                                   0
vdd#branch                         -7.6723e-12

 Reference value :  2.57875e-08
 Reference value :  6.61436e-08
 Reference value :  1.09589e-07
 Reference value :  1.50575e-07
 Reference value :  1.93348e-07
 Reference value :  2.34079e-07
 Reference value :  2.75224e-07
 Reference value :  3.16635e-07
No. of Data Rows : 68032

  Measurements for Transient Analysis

tphl                =  2.75626e-09 targ=  3.21768e-08 trig=  2.94205e-08
tplh                =  4.37497e-09 targ=  1.14637e-07 trig=  1.10262e-07
i_vdd_avg           =  -1.02626e-06 from=  1.00000e-08 to=  3.30005e-07
power_avg_uw        =  1.95494e+00


Total analysis time (seconds) = 2.27066

Total elapsed time (seconds) = 2.361 

Total DRAM available = 16384.000 MB.
DRAM currently available =  230.797 MB.
Maximum ngspice program size =   17.969 MB.
Current ngspice program size =   17.969 MB.

