
Note: No compatibility mode selected!


Circuit: GF180MCU library cell xor2_1 A1_to_Z__A2=0

Doing analysis at TEMP = 22.788342 and TNOM = 27.000000

Using SPARSE 1.3 as Direct Linear Solver

Initial Transient Solution
--------------------------

Node                                   Voltage
----                                   -------
vdd                                    1.95987
a1                                           0
a2                                           0
xu1.i                                  1.95987
z                                  4.96427e-08
xu1.net_0                          2.28662e-10
xu1.net_2                              1.95987
xu1.net_1                             0.897882
vfix_a2#branch                               0
vin#branch                                   0
vdd#branch                        -1.11051e-11

 Reference value :  4.16222e-08
 Reference value :  1.06252e-07
 Reference value :  1.69667e-07
 Reference value :  2.31862e-07
 Reference value :  2.96547e-07
No. of Data Rows : 68032

  Measurements for Transient Analysis

tplh                =  1.95443e-08 targ=  4.53616e-08 trig=  2.58174e-08
tphl                =  5.95701e-09 targ=  1.05409e-07 trig=  9.94521e-08
i_vdd_avg           =  -2.51948e-06 from=  1.00000e-08 to=  3.30002e-07
power_avg_uw        =  4.93786e+00


Total analysis time (seconds) = 1.66884

Total elapsed time (seconds) = 1.753 

Total DRAM available = 16384.000 MB.
DRAM currently available =   94.031 MB.
Maximum ngspice program size =   18.109 MB.
Current ngspice program size =   18.109 MB.

