
Note: No compatibility mode selected!


Circuit: GF180MCU library cell oai21_4 A1_to_ZN__A2=0,B=1

Doing analysis at TEMP = -13.208691 and TNOM = 27.000000

Using SPARSE 1.3 as Direct Linear Solver

Initial Transient Solution
--------------------------

Node                                   Voltage
----                                   -------
vdd                                    1.84029
a1                                           0
a2                                           0
b                                      1.84029
zn                                     1.84029
xu1.net_0                          3.02432e-13
xu1.net_1_0                            1.84029
xu1.net_1_1                            1.84029
xu1.net_1_2                            1.84029
xu1.net_1_3                            1.84029
vfix_b#branch                                0
vfix_a2#branch                               0
vin#branch                                   0
vdd#branch                        -1.48025e-11

 Reference value :  1.72764e-08
 Reference value :  4.53804e-08
 Reference value :  7.51054e-08
 Reference value :  1.04418e-07
 Reference value :  1.37138e-07
 Reference value :  1.75868e-07
 Reference value :  2.15300e-07
 Reference value :  2.59130e-07
 Reference value :  3.08113e-07
No. of Data Rows : 68034

  Measurements for Transient Analysis

tphl                =  2.83193e-09 targ=  2.91409e-08 trig=  2.63090e-08
tplh                =  6.78658e-09 targ=  1.07713e-07 trig=  1.00927e-07
i_vdd_avg           =  -2.09597e-06 from=  1.00000e-08 to=  3.30003e-07
power_avg_uw        =  3.85720e+00


Total analysis time (seconds) = 2.40698

Total elapsed time (seconds) = 2.504 

Total DRAM available = 16384.000 MB.
DRAM currently available =  279.531 MB.
Maximum ngspice program size =   18.609 MB.
Current ngspice program size =   18.609 MB.

