
Note: No compatibility mode selected!


Circuit: GF180MCU library cell inv_4 I_to_ZN

Doing analysis at TEMP = 110.201180 and TNOM = 27.000000

Using SPARSE 1.3 as Direct Linear Solver

Initial Transient Solution
--------------------------

Node                                   Voltage
----                                   -------
vdd                                    1.71323
i                                            0
zn                                     1.71323
vin#branch                                   0
vdd#branch                         -9.1755e-12

 Reference value :  7.19491e-08
 Reference value :  1.58211e-07
 Reference value :  2.32909e-07
 Reference value :  3.10471e-07
No. of Data Rows : 68030

  Measurements for Transient Analysis

tphl                =  1.13917e-09 targ=  2.86775e-08 trig=  2.75383e-08
tplh                =  2.30820e-09 targ=  1.06923e-07 trig=  1.04615e-07
i_vdd_avg           =  -2.72561e-07 from=  1.00000e-08 to=  3.30001e-07
power_avg_uw        =  4.66959e-01


Total analysis time (seconds) = 1.18444

Total elapsed time (seconds) = 1.249 

Total DRAM available = 16384.000 MB.
DRAM currently available =  343.875 MB.
Maximum ngspice program size =   19.188 MB.
Current ngspice program size =   19.188 MB.

