
Note: No compatibility mode selected!


Circuit: GF180MCU library cell nor2_1 A1_to_ZN__A2=0

Doing analysis at TEMP = 37.358678 and TNOM = 27.000000

Using SPARSE 1.3 as Direct Linear Solver

Initial Transient Solution
--------------------------

Node                                   Voltage
----                                   -------
vdd                                    1.87149
a1                                           0
a2                                           0
zn                                     1.87149
xu1.net_0                              1.87149
vfix_a2#branch                               0
vin#branch                                   0
vdd#branch                         -3.7718e-12

 Reference value :  8.80805e-08
 Reference value :  2.12796e-07
No. of Data Rows : 68034

  Measurements for Transient Analysis

tphl                =  8.02278e-09 targ=  3.61693e-08 trig=  2.81465e-08
tplh                =  2.36567e-08 targ=  1.30096e-07 trig=  1.06440e-07
i_vdd_avg           =  -2.30935e-06 from=  1.00000e-08 to=  3.30004e-07
power_avg_uw        =  4.32191e+00


Total analysis time (seconds) = 0.745416

Total elapsed time (seconds) = 0.824 

Total DRAM available = 16384.000 MB.
DRAM currently available =  141.359 MB.
Maximum ngspice program size =   16.281 MB.
Current ngspice program size =   16.281 MB.

