
Note: No compatibility mode selected!


Circuit: GF180MCU library cell nor2_4 A1_to_ZN__A2=0

Doing analysis at TEMP = 96.639239 and TNOM = 27.000000

Using SPARSE 1.3 as Direct Linear Solver

Initial Transient Solution
--------------------------

Node                                   Voltage
----                                   -------
vdd                                    1.76216
a1                                           0
a2                                           0
zn                                     1.76216
xu1.net_0_0                            1.76216
xu1.net_0_1                            1.76216
xu1.net_0_2                            1.76216
xu1.net_0_3                            1.76216
vfix_a2#branch                               0
vin#branch                                   0
vdd#branch                        -1.63803e-11

 Reference value :  2.68325e-08
 Reference value :  6.74467e-08
 Reference value :  1.07661e-07
 Reference value :  1.51316e-07
 Reference value :  1.93412e-07
 Reference value :  2.36807e-07
 Reference value :  2.87221e-07
No. of Data Rows : 68032

  Measurements for Transient Analysis

tphl                =  2.09171e-09 targ=  2.78088e-08 trig=  2.57171e-08
tplh                =  5.36798e-09 targ=  1.04519e-07 trig=  9.91514e-08
i_vdd_avg           =  -1.48206e-06 from=  1.00000e-08 to=  3.30001e-07
power_avg_uw        =  2.61162e+00


Total analysis time (seconds) = 2.03573

Total elapsed time (seconds) = 2.109 

Total DRAM available = 16384.000 MB.
DRAM currently available =  263.562 MB.
Maximum ngspice program size =   18.016 MB.
Current ngspice program size =   18.016 MB.

