
Note: No compatibility mode selected!


Circuit: GF180MCU library cell inv_4 I_to_ZN

Doing analysis at TEMP = 38.044978 and TNOM = 27.000000

Using SPARSE 1.3 as Direct Linear Solver

Initial Transient Solution
--------------------------

Node                                   Voltage
----                                   -------
vdd                                    1.85401
i                                            0
zn                                     1.85401
vin#branch                                   0
vdd#branch                        -7.47253e-12

 Reference value :  4.99576e-08
 Reference value :  1.27778e-07
 Reference value :  2.04548e-07
 Reference value :  2.79348e-07
No. of Data Rows : 68032

  Measurements for Transient Analysis

tphl                =  3.06394e-09 targ=  3.29015e-08 trig=  2.98376e-08
tplh                =  5.36884e-09 targ=  1.16882e-07 trig=  1.11513e-07
i_vdd_avg           =  -1.49711e-06 from=  1.00000e-08 to=  3.30003e-07
power_avg_uw        =  2.77566e+00


Total analysis time (seconds) = 1.23984

Total elapsed time (seconds) = 1.327 

Total DRAM available = 16384.000 MB.
DRAM currently available =   94.031 MB.
Maximum ngspice program size =   18.812 MB.
Current ngspice program size =   18.812 MB.

