
Note: No compatibility mode selected!


Circuit: GF180MCU library cell inv_1 I_to_ZN

Doing analysis at TEMP = 4.506183 and TNOM = 27.000000

Using SPARSE 1.3 as Direct Linear Solver

Initial Transient Solution
--------------------------

Node                                   Voltage
----                                   -------
vdd                                    1.83578
i                                            0
zn                                     1.83578
vin#branch                                   0
vdd#branch                        -1.84595e-12

 Reference value :  1.40702e-07
No. of Data Rows : 68030

  Measurements for Transient Analysis

tphl                =  2.48119e-09 targ=  2.93124e-08 trig=  2.68312e-08
tplh                =  4.17322e-09 targ=  1.06667e-07 trig=  1.02494e-07
i_vdd_avg           =  -5.11049e-07 from=  1.00000e-08 to=  3.30002e-07
power_avg_uw        =  9.38175e-01


Total analysis time (seconds) = 0.408566

Total elapsed time (seconds) = 0.504 

Total DRAM available = 16384.000 MB.
DRAM currently available =   94.031 MB.
Maximum ngspice program size =   18.953 MB.
Current ngspice program size =   18.953 MB.

