
Note: No compatibility mode selected!


Circuit: GF180MCU library cell nand2_4 A1_to_ZN__A2=1

Doing analysis at TEMP = 104.690550 and TNOM = 27.000000

Using SPARSE 1.3 as Direct Linear Solver

Initial Transient Solution
--------------------------

Node                                   Voltage
----                                   -------
vdd                                    1.74726
a1                                           0
a2                                     1.74726
xu1.net_0_0                        4.30898e-09
zn                                     1.74726
xu1.net_0_1                        4.30898e-09
xu1.net_0_2                        4.30898e-09
xu1.net_0_3                        4.30898e-09
vfix_a2#branch                               0
vin#branch                                   0
vdd#branch                        -8.71921e-12

 Reference value :  2.78147e-08
 Reference value :  7.08547e-08
 Reference value :  1.13537e-07
 Reference value :  1.56182e-07
 Reference value :  1.97885e-07
 Reference value :  2.39295e-07
 Reference value :  2.80612e-07
 Reference value :  3.20247e-07
No. of Data Rows : 68030

  Measurements for Transient Analysis

tphl                =  2.01115e-09 targ=  2.71373e-08 trig=  2.51261e-08
tplh                =  2.82097e-09 targ=  1.00199e-07 trig=  9.73783e-08
i_vdd_avg           =  -1.34993e-06 from=  1.00000e-08 to=  3.30002e-07
power_avg_uw        =  2.35868e+00


Total analysis time (seconds) = 2.26558

Total elapsed time (seconds) = 2.369 

Total DRAM available = 16384.000 MB.
DRAM currently available =  104.219 MB.
Maximum ngspice program size =   17.312 MB.
Current ngspice program size =   17.312 MB.

