
Note: No compatibility mode selected!


Circuit: GF180MCU library cell mux2_1 I0_to_Z__I1=0,S=0

Doing analysis at TEMP = 80.641077 and TNOM = 27.000000

Using SPARSE 1.3 as Direct Linear Solver

Initial Transient Solution
--------------------------

Node                                   Voltage
----                                   -------
vdd                                    1.87235
i0                                           0
i1                                           0
s                                            0
xu1.int04                              1.87235
z                                  1.70974e-08
xu1.net_1                            0.0321984
xu1.net_3                              1.33742
xu1.sel1_n                             1.87235
xu1.net_0                              1.87235
xu1.net_2                              1.87235
vfix_s#branch                                0
vfix_i1#branch                               0
vin#branch                                   0
vdd#branch                         -1.1623e-11

 Reference value :  3.79518e-08
 Reference value :  9.53018e-08
 Reference value :  1.50581e-07
 Reference value :  1.99852e-07
 Reference value :  2.49212e-07
 Reference value :  2.99761e-07
No. of Data Rows : 68032

  Measurements for Transient Analysis

tplh                =  9.53962e-10 targ=  2.54711e-08 trig=  2.45172e-08
tphl                =  1.75118e-09 targ=  9.73027e-08 trig=  9.55515e-08
i_vdd_avg           =  -8.86687e-08 from=  1.00000e-08 to=  3.30001e-07
power_avg_uw        =  1.66019e-01


Total analysis time (seconds) = 1.8559

Total elapsed time (seconds) = 1.938 

Total DRAM available = 16384.000 MB.
DRAM currently available =  343.875 MB.
Maximum ngspice program size =   16.969 MB.
Current ngspice program size =   16.969 MB.

