
Note: No compatibility mode selected!


Circuit: GF180MCU library cell mux2_1 I0_to_Z__I1=0,S=0

Doing analysis at TEMP = 36.742680 and TNOM = 27.000000

Using SPARSE 1.3 as Direct Linear Solver

Initial Transient Solution
--------------------------

Node                                   Voltage
----                                   -------
vdd                                    1.74267
i0                                           0
i1                                           0
s                                            0
xu1.int04                              1.74267
z                                  1.57375e-08
xu1.net_1                           0.00784879
xu1.net_3                              1.16904
xu1.sel1_n                             1.74267
xu1.net_0                              1.74267
xu1.net_2                              1.74267
vfix_s#branch                                0
vfix_i1#branch                               0
vin#branch                                   0
vdd#branch                        -9.51686e-12

 Reference value :  3.09375e-08
 Reference value :  8.21332e-08
 Reference value :  1.33679e-07
 Reference value :  1.82694e-07
 Reference value :  2.32158e-07
 Reference value :  2.84139e-07
 Reference value :  3.37889e-07
No. of Data Rows : 68032

  Measurements for Transient Analysis

tplh                =  1.26636e-08 targ=  4.04589e-08 trig=  2.77953e-08
tphl                =  8.15778e-09 targ=  1.13544e-07 trig=  1.05386e-07
i_vdd_avg           =  -1.98265e-06 from=  1.00000e-08 to=  3.30004e-07
power_avg_uw        =  3.45511e+00


Total analysis time (seconds) = 1.84827

Total elapsed time (seconds) = 1.941 

Total DRAM available = 16384.000 MB.
DRAM currently available =  313.406 MB.
Maximum ngspice program size =   15.859 MB.
Current ngspice program size =   15.859 MB.

