
Note: No compatibility mode selected!


Circuit: GF180MCU library cell oai21_1 A1_to_ZN__A2=0,B=1

Doing analysis at TEMP = 9.789223 and TNOM = 27.000000

Using SPARSE 1.3 as Direct Linear Solver

Initial Transient Solution
--------------------------

Node                                   Voltage
----                                   -------
vdd                                    1.79538
a1                                           0
a2                                           0
b                                      1.79538
zn                                     1.79538
xu1.net_0                          4.36439e-12
xu1.net_1                              1.79538
vfix_b#branch                                0
vfix_a2#branch                               0
vin#branch                                   0
vdd#branch                        -3.61134e-12

 Reference value :  6.71791e-08
 Reference value :  1.62131e-07
 Reference value :  2.56541e-07
No. of Data Rows : 68030

  Measurements for Transient Analysis

tphl                =  7.73120e-09 targ=  3.23470e-08 trig=  2.46158e-08
tplh                =  2.26096e-08 targ=  1.18457e-07 trig=  9.58474e-08
i_vdd_avg           =  -2.13635e-06 from=  1.00000e-08 to=  3.30001e-07
power_avg_uw        =  3.83557e+00


Total analysis time (seconds) = 0.993244

Total elapsed time (seconds) = 1.068 

Total DRAM available = 16384.000 MB.
DRAM currently available =  230.797 MB.
Maximum ngspice program size =   18.641 MB.
Current ngspice program size =   18.641 MB.

