
Note: No compatibility mode selected!


Circuit: GF180MCU library cell nor2_1 A1_to_ZN__A2=0

Doing analysis at TEMP = 118.203310 and TNOM = 27.000000

Using SPARSE 1.3 as Direct Linear Solver

Initial Transient Solution
--------------------------

Node                                   Voltage
----                                   -------
vdd                                    1.78846
a1                                           0
a2                                           0
zn                                     1.78846
xu1.net_0                              1.78846
vfix_a2#branch                               0
vin#branch                                   0
vdd#branch                        -5.45512e-12

 Reference value :  8.69262e-08
 Reference value :  2.21951e-07
No. of Data Rows : 68034

  Measurements for Transient Analysis

tphl                =  2.10396e-09 targ=  2.77608e-08 trig=  2.56569e-08
tplh                =  5.44552e-09 targ=  1.04416e-07 trig=  9.89706e-08
i_vdd_avg           =  -3.99653e-07 from=  1.00000e-08 to=  3.30005e-07
power_avg_uw        =  7.14763e-01


Total analysis time (seconds) = 0.749736

Total elapsed time (seconds) = 0.852 

Total DRAM available = 16384.000 MB.
DRAM currently available =  120.797 MB.
Maximum ngspice program size =   18.094 MB.
Current ngspice program size =   18.094 MB.

