
Note: No compatibility mode selected!


Circuit: GF180MCU library cell nand2_4 A1_to_ZN__A2=1

Doing analysis at TEMP = 68.739434 and TNOM = 27.000000

Using SPARSE 1.3 as Direct Linear Solver

Initial Transient Solution
--------------------------

Node                                   Voltage
----                                   -------
vdd                                    1.97183
a1                                           0
a2                                     1.97183
xu1.net_0_0                        3.65305e-10
zn                                     1.97183
xu1.net_0_1                        3.65305e-10
xu1.net_0_2                        3.65305e-10
xu1.net_0_3                        3.65305e-10
vfix_a2#branch                               0
vin#branch                                   0
vdd#branch                        -8.11315e-12

 Reference value :  3.85187e-08
 Reference value :  8.71487e-08
 Reference value :  1.28740e-07
 Reference value :  1.70910e-07
 Reference value :  2.11244e-07
 Reference value :  2.51739e-07
 Reference value :  2.90085e-07
 Reference value :  3.28950e-07
No. of Data Rows : 68032

  Measurements for Transient Analysis

tphl                =  3.42098e-09 targ=  3.14791e-08 trig=  2.80581e-08
tplh                =  4.70640e-09 targ=  1.10881e-07 trig=  1.06174e-07
i_vdd_avg           =  -2.22431e-06 from=  1.00000e-08 to=  3.30005e-07
power_avg_uw        =  4.38596e+00


Total analysis time (seconds) = 2.23118

Total elapsed time (seconds) = 2.298 

Total DRAM available = 16384.000 MB.
DRAM currently available =  361.516 MB.
Maximum ngspice program size =   16.656 MB.
Current ngspice program size =   16.656 MB.

