
Note: No compatibility mode selected!


Circuit: GF180MCU library cell aoi21_1 A1_to_ZN__A2=1,B=0

Doing analysis at TEMP = -3.670827 and TNOM = 27.000000

Using SPARSE 1.3 as Direct Linear Solver

Initial Transient Solution
--------------------------

Node                                   Voltage
----                                   -------
vdd                                    1.88526
a1                                           0
a2                                     1.88526
b                                            0
xu1.net_0                          4.70194e-13
zn                                     1.88526
xu1.net_1                              1.88526
vfix_b#branch                                0
vfix_a2#branch                               0
vin#branch                                   0
vdd#branch                         -3.7907e-12

 Reference value :  6.61169e-08
 Reference value :  1.61956e-07
 Reference value :  2.58737e-07
No. of Data Rows : 68032

  Measurements for Transient Analysis

tphl                =  7.30388e-09 targ=  3.68836e-08 trig=  2.95797e-08
tplh                =  1.63248e-08 targ=  1.27064e-07 trig=  1.10739e-07
i_vdd_avg           =  -1.53921e-06 from=  1.00000e-08 to=  3.30001e-07
power_avg_uw        =  2.90181e+00


Total analysis time (seconds) = 1.12156

Total elapsed time (seconds) = 1.201 

Total DRAM available = 16384.000 MB.
DRAM currently available =   88.766 MB.
Maximum ngspice program size =   17.453 MB.
Current ngspice program size =   17.453 MB.

