
Note: No compatibility mode selected!


Circuit: GF180MCU library cell mux2_1 I0_to_Z__I1=0,S=0

Doing analysis at TEMP = 44.187857 and TNOM = 27.000000

Using SPARSE 1.3 as Direct Linear Solver

Initial Transient Solution
--------------------------

Node                                   Voltage
----                                   -------
vdd                                    1.72334
i0                                           0
i1                                           0
s                                            0
xu1.int04                              1.72334
z                                  1.61625e-08
xu1.net_1                             0.011383
xu1.net_3                              1.16582
xu1.sel1_n                             1.72334
xu1.net_0                              1.72334
xu1.net_2                              1.72334
vfix_s#branch                                0
vfix_i1#branch                               0
vin#branch                                   0
vdd#branch                         -9.4844e-12

 Reference value :  3.71896e-08
 Reference value :  8.75996e-08
 Reference value :  1.41742e-07
 Reference value :  1.91803e-07
 Reference value :  2.44595e-07
 Reference value :  2.94452e-07
No. of Data Rows : 68030

  Measurements for Transient Analysis

tplh                =  6.31708e-09 targ=  3.48832e-08 trig=  2.85661e-08
tphl                =  6.15304e-09 targ=  1.13851e-07 trig=  1.07698e-07
i_vdd_avg           =  -7.94907e-07 from=  1.00000e-08 to=  3.30002e-07
power_avg_uw        =  1.36989e+00


Total analysis time (seconds) = 1.91965

Total elapsed time (seconds) = 2.005 

Total DRAM available = 16384.000 MB.
DRAM currently available =  163.328 MB.
Maximum ngspice program size =   18.922 MB.
Current ngspice program size =   18.922 MB.

