
Note: No compatibility mode selected!


Circuit: GF180MCU library cell inv_1 I_to_ZN

Doing analysis at TEMP = -36.905364 and TNOM = 27.000000

Using SPARSE 1.3 as Direct Linear Solver

Initial Transient Solution
--------------------------

Node                                   Voltage
----                                   -------
vdd                                    1.79336
i                                            0
zn                                     1.79336
vin#branch                                   0
vdd#branch                        -1.80336e-12

 Reference value :  1.43144e-07
No. of Data Rows : 68032

  Measurements for Transient Analysis

tphl                =  3.76474e-09 targ=  2.87452e-08 trig=  2.49805e-08
tplh                =  8.98417e-09 targ=  1.05926e-07 trig=  9.69415e-08
i_vdd_avg           =  -1.77625e-06 from=  1.00000e-08 to=  3.30004e-07
power_avg_uw        =  3.18546e+00


Total analysis time (seconds) = 0.514767

Total elapsed time (seconds) = 0.599 

Total DRAM available = 16384.000 MB.
DRAM currently available =  286.500 MB.
Maximum ngspice program size =   17.328 MB.
Current ngspice program size =   17.328 MB.

