
Note: No compatibility mode selected!


Circuit: GF180MCU library cell aoi21_4 A1_to_ZN__A2=1,B=0

Doing analysis at TEMP = 111.910710 and TNOM = 27.000000

Using SPARSE 1.3 as Direct Linear Solver

Initial Transient Solution
--------------------------

Node                                   Voltage
----                                   -------
vdd                                    1.87195
a1                                           0
a2                                     1.87195
b                                            0
xu1.net_0_0                        6.27344e-09
zn                                     1.87195
xu1.net_0_1                        6.27344e-09
xu1.net_0_2                        6.27344e-09
xu1.net_0_3                        6.27344e-09
xu1.net_1                              1.87195
vfix_b#branch                                0
vfix_a2#branch                               0
vin#branch                                   0
vdd#branch                         -2.0848e-11

 Reference value :  1.85664e-08
 Reference value :  4.59607e-08
 Reference value :  7.33207e-08
 Reference value :  1.01556e-07
 Reference value :  1.30754e-07
 Reference value :  1.57809e-07
 Reference value :  1.84753e-07
 Reference value :  2.12056e-07
 Reference value :  2.39876e-07
 Reference value :  2.67396e-07
 Reference value :  2.95654e-07
 Reference value :  3.24054e-07
No. of Data Rows : 68034

  Measurements for Transient Analysis

tphl                =  5.97865e-10 targ=  2.88195e-08 trig=  2.82216e-08
tplh                =  1.92034e-09 targ=  1.08585e-07 trig=  1.06665e-07
i_vdd_avg           =  -1.54031e-07 from=  1.00000e-08 to=  3.30004e-07
power_avg_uw        =  2.88338e-01


Total analysis time (seconds) = 3.42497

Total elapsed time (seconds) = 3.520 

Total DRAM available = 16384.000 MB.
DRAM currently available =  119.750 MB.
Maximum ngspice program size =   16.094 MB.
Current ngspice program size =   16.094 MB.

