
Note: No compatibility mode selected!


Circuit: GF180MCU library cell nor2_1 A1_to_ZN__A2=0

Doing analysis at TEMP = 49.066588 and TNOM = 27.000000

Using SPARSE 1.3 as Direct Linear Solver

Initial Transient Solution
--------------------------

Node                                   Voltage
----                                   -------
vdd                                    1.84118
a1                                           0
a2                                           0
zn                                     1.84118
xu1.net_0                              1.84118
vfix_a2#branch                               0
vin#branch                                   0
vdd#branch                        -3.72482e-12

 Reference value :  9.07701e-08
 Reference value :  2.26310e-07
No. of Data Rows : 68034

  Measurements for Transient Analysis

tphl                =  4.50532e-09 targ=  3.15616e-08 trig=  2.70563e-08
tplh                =  1.23725e-08 targ=  1.15541e-07 trig=  1.03169e-07
i_vdd_avg           =  -1.08160e-06 from=  1.00000e-08 to=  3.30003e-07
power_avg_uw        =  1.99142e+00


Total analysis time (seconds) = 0.704116

Total elapsed time (seconds) = 0.781 

Total DRAM available = 16384.000 MB.
DRAM currently available =  230.797 MB.
Maximum ngspice program size =   17.047 MB.
Current ngspice program size =   17.047 MB.

