
Note: No compatibility mode selected!


Circuit: GF180MCU library cell nand2_1 A1_to_ZN__A2=1

Doing analysis at TEMP = 93.676356 and TNOM = 27.000000

Using SPARSE 1.3 as Direct Linear Solver

Initial Transient Solution
--------------------------

Node                                   Voltage
----                                   -------
vdd                                    1.70769
a1                                           0
a2                                     1.70769
xu1.net_0                          2.22252e-09
zn                                     1.70769
vfix_a2#branch                               0
vin#branch                                   0
vdd#branch                        -1.93376e-12

 Reference value :  9.04144e-08
 Reference value :  2.18224e-07
No. of Data Rows : 68030

  Measurements for Transient Analysis

tphl                =  1.11381e-09 targ=  2.67072e-08 trig=  2.55934e-08
tplh                =  1.57832e-09 targ=  1.00359e-07 trig=  9.87803e-08
i_vdd_avg           =  -8.17188e-08 from=  1.00000e-08 to=  3.30001e-07
power_avg_uw        =  1.39551e-01


Total analysis time (seconds) = 0.712889

Total elapsed time (seconds) = 0.800 

Total DRAM available = 16384.000 MB.
DRAM currently available =  367.391 MB.
Maximum ngspice program size =   16.688 MB.
Current ngspice program size =   16.688 MB.

