
Note: No compatibility mode selected!


Circuit: GF180MCU library cell nand3_1 A1_to_ZN__A2=1,A3=1

Doing analysis at TEMP = 92.115975 and TNOM = 27.000000

Using SPARSE 1.3 as Direct Linear Solver

Initial Transient Solution
--------------------------

Node                                   Voltage
----                                   -------
vdd                                    1.66219
a1                                           0
a2                                     1.66219
a3                                     1.66219
xu1.net_1                          2.05884e-09
xu1.net_0                          4.11769e-09
zn                                     1.66219
vfix_a3#branch                               0
vfix_a2#branch                               0
vin#branch                                   0
vdd#branch                        -1.86493e-12

 Reference value :  5.85494e-08
 Reference value :  1.58966e-07
 Reference value :  2.59114e-07
No. of Data Rows : 68030

  Measurements for Transient Analysis

tphl                =  1.44088e-08 targ=  4.32898e-08 trig=  2.88809e-08
tplh                =  1.74953e-08 targ=  1.26138e-07 trig=  1.08643e-07
i_vdd_avg           =  -1.66508e-06 from=  1.00000e-08 to=  3.30001e-07
power_avg_uw        =  2.76768e+00


Total analysis time (seconds) = 0.950429

Total elapsed time (seconds) = 1.041 

Total DRAM available = 16384.000 MB.
DRAM currently available =  289.422 MB.
Maximum ngspice program size =   16.859 MB.
Current ngspice program size =   16.859 MB.

