
Note: No compatibility mode selected!


Circuit: GF180MCU library cell oai21_4 A1_to_ZN__A2=0,B=1

Doing analysis at TEMP = 47.619962 and TNOM = 27.000000

Using SPARSE 1.3 as Direct Linear Solver

Initial Transient Solution
--------------------------

Node                                   Voltage
----                                   -------
vdd                                    1.92635
a1                                           0
a2                                           0
b                                      1.92635
zn                                     1.92635
xu1.net_0                          1.43336e-10
xu1.net_1_0                            1.92635
xu1.net_1_1                            1.92635
xu1.net_1_2                            1.92635
xu1.net_1_3                            1.92635
vfix_b#branch                                0
vfix_a2#branch                               0
vin#branch                                   0
vdd#branch                        -1.55656e-11

 Reference value :  1.78414e-08
 Reference value :  4.85638e-08
 Reference value :  7.55538e-08
 Reference value :  1.04034e-07
 Reference value :  1.31705e-07
 Reference value :  1.59495e-07
 Reference value :  1.89158e-07
 Reference value :  2.17544e-07
 Reference value :  2.44204e-07
 Reference value :  2.72655e-07
 Reference value :  2.99715e-07
 Reference value :  3.29500e-07
No. of Data Rows : 68030

  Measurements for Transient Analysis

tphl                =  2.99922e-09 targ=  3.07348e-08 trig=  2.77356e-08
tplh                =  6.12569e-09 targ=  1.11333e-07 trig=  1.05207e-07
i_vdd_avg           =  -1.72245e-06 from=  1.00000e-08 to=  3.30000e-07
power_avg_uw        =  3.31803e+00


Total analysis time (seconds) = 3.50583

Total elapsed time (seconds) = 3.592 

Total DRAM available = 16384.000 MB.
DRAM currently available =  141.359 MB.
Maximum ngspice program size =   17.969 MB.
Current ngspice program size =   17.969 MB.

