
Note: No compatibility mode selected!


Circuit: GF180MCU library cell aoi21_1 A1_to_ZN__A2=1,B=0

Doing analysis at TEMP = -20.820692 and TNOM = 27.000000

Using SPARSE 1.3 as Direct Linear Solver

Initial Transient Solution
--------------------------

Node                                   Voltage
----                                   -------
vdd                                    1.65537
a1                                           0
a2                                     1.65537
b                                            0
xu1.net_0                          6.23817e-14
zn                                     1.65537
xu1.net_1                              1.65537
vfix_b#branch                                0
vfix_a2#branch                               0
vin#branch                                   0
vdd#branch                        -3.33077e-12

 Reference value :  8.55739e-08
 Reference value :  1.92304e-07
 Reference value :  2.85685e-07
No. of Data Rows : 68030

  Measurements for Transient Analysis

tphl                =  1.06648e-08 targ=  3.83905e-08 trig=  2.77257e-08
tplh                =  3.09226e-08 targ=  1.36100e-07 trig=  1.05177e-07
i_vdd_avg           =  -1.91475e-06 from=  1.00000e-08 to=  3.30000e-07
power_avg_uw        =  3.16962e+00


Total analysis time (seconds) = 0.977353

Total elapsed time (seconds) = 1.046 

Total DRAM available = 16384.000 MB.
DRAM currently available =  336.688 MB.
Maximum ngspice program size =   16.031 MB.
Current ngspice program size =   16.031 MB.

