
Note: No compatibility mode selected!


Circuit: NAND2 seed characterization sample 4102017

Doing analysis at TEMP = 74.753700 and TNOM = 27.000000

Using SPARSE 1.3 as Direct Linear Solver

Initial Transient Solution
--------------------------

Node                                   Voltage
----                                   -------
vdd                                    1.73865
in                                           0
out                                    1.73865
nmid                                 0.0561176
vin#branch                                   0
vdd#branch                        -8.96157e-12

 Reference value :  4.69823e-08
 Reference value :  1.07992e-07
No. of Data Rows : 60047

  Measurements for Transient Analysis

tphl                =  5.78377e-10 targ=  2.68102e-09 trig=  2.10264e-09
tplh                =  2.02166e-10 targ=  2.25101e-08 trig=  2.23079e-08
i_vdd_avg           =  -1.92202e-06 from=  5.00000e-09 to=  1.10002e-07
power_avg_uw        =  3.34172e+00


Total analysis time (seconds) = 0.472405

Total elapsed time (seconds) = 0.542 

Total DRAM available = 16384.000 MB.
DRAM currently available =  237.516 MB.
Maximum ngspice program size =   12.562 MB.
Current ngspice program size =   11.938 MB.

