
Note: No compatibility mode selected!


Circuit: INV seed characterization sample 4102029

Doing analysis at TEMP = 84.339100 and TNOM = 27.000000

Using SPARSE 1.3 as Direct Linear Solver

Initial Transient Solution
--------------------------

Node                                   Voltage
----                                   -------
vdd                                     1.8856
in                                           0
out                                     1.8856
vin#branch                                   0
vdd#branch                         -1.6386e-10

 Reference value :  7.13109e-08
No. of Data Rows : 60044

  Measurements for Transient Analysis

tphl                =  1.12000e-10 targ=  2.12199e-09 trig=  2.00999e-09
tplh                =  9.88280e-11 targ=  2.21288e-08 trig=  2.20300e-08
i_vdd_avg           =  -1.95845e-06 from=  5.00000e-09 to=  1.10001e-07
power_avg_uw        =  3.69285e+00


Total analysis time (seconds) = 0.300488

Total elapsed time (seconds) = 0.373 

Total DRAM available = 16384.000 MB.
DRAM currently available =  295.859 MB.
Maximum ngspice program size =   12.562 MB.
Current ngspice program size =   11.906 MB.

