
Note: No compatibility mode selected!


Circuit: INV seed characterization sample 4102018

Doing analysis at TEMP = 9.693640 and TNOM = 27.000000

Using SPARSE 1.3 as Direct Linear Solver

Initial Transient Solution
--------------------------

Node                                   Voltage
----                                   -------
vdd                                    1.68668
in                                           0
out                                    1.68668
vin#branch                                   0
vdd#branch                        -6.00768e-12

 Reference value :  7.38064e-08
No. of Data Rows : 60041

  Measurements for Transient Analysis

tphl                =  1.31923e-10 targ=  2.25128e-09 trig=  2.11936e-09
tplh                =  1.59494e-10 targ=  2.25176e-08 trig=  2.23581e-08
i_vdd_avg           =  -3.84287e-06 from=  5.00000e-09 to=  1.10000e-07
power_avg_uw        =  6.48170e+00


Total analysis time (seconds) = 0.292548

Total elapsed time (seconds) = 0.361 

Total DRAM available = 16384.000 MB.
DRAM currently available =  247.625 MB.
Maximum ngspice program size =   12.594 MB.
Current ngspice program size =   11.688 MB.

