
Note: No compatibility mode selected!


Circuit: NAND2 seed characterization sample 4102040

Doing analysis at TEMP = 39.861800 and TNOM = 27.000000

Using SPARSE 1.3 as Direct Linear Solver

Initial Transient Solution
--------------------------

Node                                   Voltage
----                                   -------
vdd                                    1.79758
in                                           0
out                                    1.79758
nmid                                 0.0546137
vin#branch                                   0
vdd#branch                        -7.06562e-12

 Reference value :  4.36244e-08
 Reference value :  1.01120e-07
No. of Data Rows : 60047

  Measurements for Transient Analysis

tphl                =  1.47348e-10 targ=  2.36204e-09 trig=  2.21469e-09
tplh                =  6.24277e-11 targ=  2.27065e-08 trig=  2.26441e-08
i_vdd_avg           =  -1.61709e-06 from=  5.00000e-09 to=  1.10002e-07
power_avg_uw        =  2.90684e+00


Total analysis time (seconds) = 0.507043

Total elapsed time (seconds) = 0.582 

Total DRAM available = 16384.000 MB.
DRAM currently available =  291.141 MB.
Maximum ngspice program size =   12.562 MB.
Current ngspice program size =   11.875 MB.

