
Note: No compatibility mode selected!


Circuit: XOR2 seed characterization sample 4102037

Doing analysis at TEMP = 0.451359 and TNOM = 27.000000

Using SPARSE 1.3 as Direct Linear Solver

Initial Transient Solution
--------------------------

Node                                   Voltage
----                                   -------
vdd                                    1.67589
in                                           0
b                                      1.67589
abar                                   1.67589
bbar                               1.29753e-09
out                                    1.67589
vb#branch                                    0
vin#branch                          3.1974e-12
vdd#branch                        -1.27845e-11

 Reference value :  2.50982e-08
 Reference value :  5.87516e-08
 Reference value :  9.21596e-08
No. of Data Rows : 60041

  Measurements for Transient Analysis

tphl                =  3.46488e-10 targ=  2.54678e-09 trig=  2.20030e-09
tplh                =  4.23096e-10 targ=  2.30240e-08 trig=  2.26009e-08
i_vdd_avg           =  -5.81514e-06 from=  5.00000e-09 to=  1.10000e-07
power_avg_uw        =  9.74554e+00


Total analysis time (seconds) = 0.843857

Total elapsed time (seconds) = 0.921 

Total DRAM available = 16384.000 MB.
DRAM currently available =  281.219 MB.
Maximum ngspice program size =   12.578 MB.
Current ngspice program size =   11.688 MB.

