
Note: No compatibility mode selected!


Circuit: NOR2 seed characterization sample 4102045

Doing analysis at TEMP = -6.979280 and TNOM = 27.000000

Using SPARSE 1.3 as Direct Linear Solver

Initial Transient Solution
--------------------------

Node                                   Voltage
----                                   -------
vdd                                    1.75883
in                                           0
out                                    1.75883
pmid                                   1.75883
vin#branch                                   0
vdd#branch                        -5.51155e-12

 Reference value :  3.89752e-08
 Reference value :  9.28331e-08
No. of Data Rows : 60044

  Measurements for Transient Analysis

tphl                =  6.67812e-11 targ=  2.18882e-09 trig=  2.12204e-09
tplh                =  1.73645e-10 targ=  2.25398e-08 trig=  2.23661e-08
i_vdd_avg           =  -2.56213e-06 from=  5.00000e-09 to=  1.10001e-07
power_avg_uw        =  4.50635e+00


Total analysis time (seconds) = 0.526383

Total elapsed time (seconds) = 0.605 

Total DRAM available = 16384.000 MB.
DRAM currently available =  278.453 MB.
Maximum ngspice program size =   12.562 MB.
Current ngspice program size =   11.625 MB.

