
Note: No compatibility mode selected!


Circuit: NOR2 seed characterization sample 4102019

Doing analysis at TEMP = 81.427100 and TNOM = 27.000000

Using SPARSE 1.3 as Direct Linear Solver

Initial Transient Solution
--------------------------

Node                                   Voltage
----                                   -------
vdd                                    1.96733
in                                           0
out                                    1.96733
pmid                                   1.96733
vin#branch                                   0
vdd#branch                        -7.15033e-10

 Reference value :  4.63689e-08
 Reference value :  1.06713e-07
No. of Data Rows : 60044

  Measurements for Transient Analysis

tphl                =  9.93251e-11 targ=  2.31027e-09 trig=  2.21094e-09
tplh                =  3.30290e-10 targ=  2.29631e-08 trig=  2.26328e-08
i_vdd_avg           =  -3.99625e-06 from=  5.00000e-09 to=  1.10001e-07
power_avg_uw        =  7.86194e+00


Total analysis time (seconds) = 0.479317

Total elapsed time (seconds) = 0.548 

Total DRAM available = 16384.000 MB.
DRAM currently available =  251.734 MB.
Maximum ngspice program size =   12.562 MB.
Current ngspice program size =   11.875 MB.

