
Note: No compatibility mode selected!


Circuit: XOR2 seed characterization sample 4102016

Doing analysis at TEMP = 39.676900 and TNOM = 27.000000

Using SPARSE 1.3 as Direct Linear Solver

Initial Transient Solution
--------------------------

Node                                   Voltage
----                                   -------
vdd                                    1.97752
in                                           0
b                                      1.97752
abar                                   1.97752
bbar                               4.40691e-09
out                                    1.97752
vb#branch                                    0
vin#branch                          2.1012e-11
vdd#branch                        -4.52038e-11

 Reference value :  2.64552e-08
 Reference value :  6.15631e-08
 Reference value :  9.64931e-08
No. of Data Rows : 60044

  Measurements for Transient Analysis

tphl                =  2.03161e-10 targ=  2.34821e-09 trig=  2.14505e-09
tplh                =  1.93482e-10 targ=  2.26286e-08 trig=  2.24352e-08
i_vdd_avg           =  -2.40923e-06 from=  5.00000e-09 to=  1.10001e-07
power_avg_uw        =  4.76429e+00


Total analysis time (seconds) = 0.819925

Total elapsed time (seconds) = 0.892 

Total DRAM available = 16384.000 MB.
DRAM currently available =  247.625 MB.
Maximum ngspice program size =   13.328 MB.
Current ngspice program size =   13.328 MB.

