
Note: No compatibility mode selected!


Circuit: NAND2 seed characterization sample 4102020

Doing analysis at TEMP = 1.008520 and TNOM = 27.000000

Using SPARSE 1.3 as Direct Linear Solver

Initial Transient Solution
--------------------------

Node                                   Voltage
----                                   -------
vdd                                    1.89898
in                                           0
out                                    1.89898
nmid                                 0.0488514
vin#branch                                   0
vdd#branch                         -2.3291e-12

 Reference value :  4.72887e-08
 Reference value :  1.08334e-07
No. of Data Rows : 60044

  Measurements for Transient Analysis

tphl                =  1.46157e-10 targ=  2.22703e-09 trig=  2.08087e-09
tplh                =  6.70144e-11 targ=  2.23096e-08 trig=  2.22426e-08
i_vdd_avg           =  -4.39481e-06 from=  5.00000e-09 to=  1.10000e-07
power_avg_uw        =  8.34565e+00


Total analysis time (seconds) = 0.471976

Total elapsed time (seconds) = 0.541 

Total DRAM available = 16384.000 MB.
DRAM currently available =  232.516 MB.
Maximum ngspice program size =   12.562 MB.
Current ngspice program size =   11.984 MB.

