
Note: No compatibility mode selected!


Circuit: NAND2 seed characterization sample 4102028

Doing analysis at TEMP = 91.003100 and TNOM = 27.000000

Using SPARSE 1.3 as Direct Linear Solver

Initial Transient Solution
--------------------------

Node                                   Voltage
----                                   -------
vdd                                    1.71651
in                                           0
out                                    1.71651
nmid                                 0.0557984
vin#branch                                   0
vdd#branch                        -1.37484e-10

 Reference value :  4.25631e-08
 Reference value :  1.00981e-07
No. of Data Rows : 60044

  Measurements for Transient Analysis

tphl                =  2.94902e-10 targ=  2.40396e-09 trig=  2.10905e-09
tplh                =  1.27282e-10 targ=  2.24544e-08 trig=  2.23272e-08
i_vdd_avg           =  -6.32596e-06 from=  5.00000e-09 to=  1.10001e-07
power_avg_uw        =  1.08586e+01


Total analysis time (seconds) = 0.495179

Total elapsed time (seconds) = 0.570 

Total DRAM available = 16384.000 MB.
DRAM currently available =  304.906 MB.
Maximum ngspice program size =   12.562 MB.
Current ngspice program size =   11.656 MB.

