
Note: No compatibility mode selected!


Circuit: NAND2 seed characterization sample 4102013

Doing analysis at TEMP = 97.599600 and TNOM = 27.000000

Using SPARSE 1.3 as Direct Linear Solver

Initial Transient Solution
--------------------------

Node                                   Voltage
----                                   -------
vdd                                    1.94599
in                                           0
out                                    1.94599
nmid                                 0.0611227
vin#branch                                   0
vdd#branch                        -1.85169e-10

 Reference value :  4.69871e-08
 Reference value :  1.07823e-07
No. of Data Rows : 60044

  Measurements for Transient Analysis

tphl                =  1.43776e-10 targ=  2.38581e-09 trig=  2.24204e-09
tplh                =  4.13209e-11 targ=  2.27674e-08 trig=  2.27261e-08
i_vdd_avg           =  -2.05785e-06 from=  5.00000e-09 to=  1.10001e-07
power_avg_uw        =  4.00456e+00


Total analysis time (seconds) = 0.477868

Total elapsed time (seconds) = 0.547 

Total DRAM available = 16384.000 MB.
DRAM currently available =  237.594 MB.
Maximum ngspice program size =   12.562 MB.
Current ngspice program size =   11.906 MB.

