
Note: No compatibility mode selected!


Circuit: XOR2 seed characterization sample 4102034

Doing analysis at TEMP = 46.596100 and TNOM = 27.000000

Using SPARSE 1.3 as Direct Linear Solver

Initial Transient Solution
--------------------------

Node                                   Voltage
----                                   -------
vdd                                    1.85615
in                                           0
b                                      1.85615
abar                                   1.85615
bbar                                2.9338e-09
out                                    1.85615
vb#branch                                    0
vin#branch                         7.52516e-11
vdd#branch                        -1.41698e-10

 Reference value :  2.32897e-08
 Reference value :  5.95583e-08
 Reference value :  9.72323e-08
No. of Data Rows : 60047

  Measurements for Transient Analysis

tphl                =  1.85261e-10 targ=  2.30193e-09 trig=  2.11667e-09
tplh                =  2.28841e-10 targ=  2.25788e-08 trig=  2.23500e-08
i_vdd_avg           =  -4.68620e-06 from=  5.00000e-09 to=  1.10002e-07
power_avg_uw        =  8.69829e+00


Total analysis time (seconds) = 0.794654

Total elapsed time (seconds) = 0.890 

Total DRAM available = 16384.000 MB.
DRAM currently available =  278.938 MB.
Maximum ngspice program size =   12.844 MB.
Current ngspice program size =   12.500 MB.

