
Note: No compatibility mode selected!


Circuit: INV seed characterization sample 4102012

Doing analysis at TEMP = 32.588500 and TNOM = 27.000000

Using SPARSE 1.3 as Direct Linear Solver

Initial Transient Solution
--------------------------

Node                                   Voltage
----                                   -------
vdd                                    1.79418
in                                           0
out                                    1.79418
vin#branch                                   0
vdd#branch                        -3.02542e-11

 Reference value :  5.98171e-08
No. of Data Rows : 60044

  Measurements for Transient Analysis

tphl                =  4.06024e-11 targ=  2.10766e-09 trig=  2.06706e-09
tplh                =  6.23609e-11 targ=  2.22635e-08 trig=  2.22012e-08
i_vdd_avg           =  -9.77497e-07 from=  5.00000e-09 to=  1.10001e-07
power_avg_uw        =  1.75381e+00


Total analysis time (seconds) = 0.343312

Total elapsed time (seconds) = 0.424 

Total DRAM available = 16384.000 MB.
DRAM currently available =  233.719 MB.
Maximum ngspice program size =   12.562 MB.
Current ngspice program size =   11.594 MB.

