
Note: No compatibility mode selected!


Circuit: NOR2 seed characterization sample 4102014

Doing analysis at TEMP = 23.907900 and TNOM = 27.000000

Using SPARSE 1.3 as Direct Linear Solver

Initial Transient Solution
--------------------------

Node                                   Voltage
----                                   -------
vdd                                    1.86479
in                                           0
out                                    1.86479
pmid                                   1.86479
vin#branch                                   0
vdd#branch                        -8.70514e-12

 Reference value :  4.60644e-08
 Reference value :  1.06428e-07
No. of Data Rows : 60047

  Measurements for Transient Analysis

tphl                =  2.34231e-10 targ=  2.26892e-09 trig=  2.03469e-09
tplh                =  9.80213e-10 targ=  2.30843e-08 trig=  2.21041e-08
i_vdd_avg           =  -5.29727e-06 from=  5.00000e-09 to=  1.10002e-07
power_avg_uw        =  9.87830e+00


Total analysis time (seconds) = 0.483738

Total elapsed time (seconds) = 0.553 

Total DRAM available = 16384.000 MB.
DRAM currently available =  247.625 MB.
Maximum ngspice program size =   12.562 MB.
Current ngspice program size =   11.656 MB.

