
Note: No compatibility mode selected!


Circuit: NOR2 seed characterization sample 4102042

Doing analysis at TEMP = 16.214300 and TNOM = 27.000000

Using SPARSE 1.3 as Direct Linear Solver

Initial Transient Solution
--------------------------

Node                                   Voltage
----                                   -------
vdd                                    1.70634
in                                           0
out                                    1.70634
pmid                                   1.70634
vin#branch                                   0
vdd#branch                        -7.91448e-12

 Reference value :  4.52586e-08
 Reference value :  1.04252e-07
No. of Data Rows : 60044

  Measurements for Transient Analysis

tphl                =  1.39409e-10 targ=  2.21622e-09 trig=  2.07681e-09
tplh                =  6.47177e-10 targ=  2.28776e-08 trig=  2.22304e-08
i_vdd_avg           =  -3.97533e-06 from=  5.00000e-09 to=  1.10000e-07
power_avg_uw        =  6.78327e+00


Total analysis time (seconds) = 0.493362

Total elapsed time (seconds) = 0.565 

Total DRAM available = 16384.000 MB.
DRAM currently available =  294.188 MB.
Maximum ngspice program size =   12.562 MB.
Current ngspice program size =   11.594 MB.

