
Note: No compatibility mode selected!


Circuit: INV seed characterization sample 4102022

Doing analysis at TEMP = -11.615400 and TNOM = 27.000000

Using SPARSE 1.3 as Direct Linear Solver

Initial Transient Solution
--------------------------

Node                                   Voltage
----                                   -------
vdd                                    1.85857
in                                           0
out                                    1.85857
vin#branch                                   0
vdd#branch                        -2.15717e-12

 Reference value :  5.22200e-08
No. of Data Rows : 60047

  Measurements for Transient Analysis

tphl                =  2.16692e-10 targ=  2.43619e-09 trig=  2.21950e-09
tplh                =  2.79877e-10 targ=  2.29384e-08 trig=  2.26585e-08
i_vdd_avg           =  -3.32161e-06 from=  5.00000e-09 to=  1.10001e-07
power_avg_uw        =  6.17344e+00


Total analysis time (seconds) = 0.335206

Total elapsed time (seconds) = 0.446 

Total DRAM available = 16384.000 MB.
DRAM currently available =  257.562 MB.
Maximum ngspice program size =   12.859 MB.
Current ngspice program size =   12.250 MB.

