
Note: No compatibility mode selected!


Circuit: NOR2 seed characterization sample 4102005

Doing analysis at TEMP = 52.371800 and TNOM = 27.000000

Using SPARSE 1.3 as Direct Linear Solver

Initial Transient Solution
--------------------------

Node                                   Voltage
----                                   -------
vdd                                    1.64817
in                                           0
out                                    1.64817
pmid                                   1.64817
vin#branch                                   0
vdd#branch                        -1.32668e-10

 Reference value :  4.04060e-08
 Reference value :  9.08435e-08
No. of Data Rows : 60041

  Measurements for Transient Analysis

tphl                =  3.21603e-11 targ=  2.27341e-09 trig=  2.24125e-09
tplh                =  2.18491e-10 targ=  2.29422e-08 trig=  2.27238e-08
i_vdd_avg           =  -9.65885e-07 from=  5.00000e-09 to=  1.10000e-07
power_avg_uw        =  1.59194e+00


Total analysis time (seconds) = 0.543178

Total elapsed time (seconds) = 0.621 

Total DRAM available = 16384.000 MB.
DRAM currently available =  222.234 MB.
Maximum ngspice program size =   12.562 MB.
Current ngspice program size =   11.875 MB.

