
Note: No compatibility mode selected!


Circuit: XOR2 seed characterization sample 4102035

Doing analysis at TEMP = 6.209710 and TNOM = 27.000000

Using SPARSE 1.3 as Direct Linear Solver

Initial Transient Solution
--------------------------

Node                                   Voltage
----                                   -------
vdd                                    1.80502
in                                           0
b                                      1.80502
abar                                   1.80502
bbar                               1.28605e-09
out                                    1.80502
vb#branch                                    0
vin#branch                         4.84188e-12
vdd#branch                        -1.62442e-11

 Reference value :  2.75903e-08
 Reference value :  6.36483e-08
 Reference value :  1.01250e-07
No. of Data Rows : 60041

  Measurements for Transient Analysis

tphl                =  1.85186e-10 targ=  2.22750e-09 trig=  2.04232e-09
tplh                =  1.85013e-10 targ=  2.23120e-08 trig=  2.21269e-08
i_vdd_avg           =  -4.53825e-06 from=  5.00000e-09 to=  1.10000e-07
power_avg_uw        =  8.19164e+00


Total analysis time (seconds) = 0.794657

Total elapsed time (seconds) = 0.865 

Total DRAM available = 16384.000 MB.
DRAM currently available =  275.719 MB.
Maximum ngspice program size =   12.562 MB.
Current ngspice program size =   11.656 MB.

