
Note: No compatibility mode selected!


Circuit: NOR2 seed characterization sample 4102031

Doing analysis at TEMP = 97.891100 and TNOM = 27.000000

Using SPARSE 1.3 as Direct Linear Solver

Initial Transient Solution
--------------------------

Node                                   Voltage
----                                   -------
vdd                                    1.81805
in                                           0
out                                    1.81805
pmid                                   1.81805
vin#branch                                   0
vdd#branch                        -1.10068e-09

 Reference value :  4.57675e-08
 Reference value :  1.05934e-07
No. of Data Rows : 60041

  Measurements for Transient Analysis

tphl                =  1.19973e-10 targ=  2.30322e-09 trig=  2.18325e-09
tplh                =  2.93139e-10 targ=  2.28429e-08 trig=  2.25498e-08
i_vdd_avg           =  -3.40215e-06 from=  5.00000e-09 to=  1.10000e-07
power_avg_uw        =  6.18528e+00


Total analysis time (seconds) = 0.47342

Total elapsed time (seconds) = 0.545 

Total DRAM available = 16384.000 MB.
DRAM currently available =  295.859 MB.
Maximum ngspice program size =   12.562 MB.
Current ngspice program size =   11.625 MB.

