
Note: No compatibility mode selected!


Circuit: INV seed characterization sample 4102036

Doing analysis at TEMP = -9.724970 and TNOM = 27.000000

Using SPARSE 1.3 as Direct Linear Solver

Initial Transient Solution
--------------------------

Node                                   Voltage
----                                   -------
vdd                                    1.62025
in                                           0
out                                    1.62025
vin#branch                                   0
vdd#branch                         -1.7464e-12

 Reference value :  7.10944e-08
No. of Data Rows : 60041

  Measurements for Transient Analysis

tphl                =  3.67591e-10 targ=  2.39794e-09 trig=  2.03035e-09
tplh                =  4.00412e-10 targ=  2.24915e-08 trig=  2.20910e-08
i_vdd_avg           =  -2.94114e-06 from=  5.00000e-09 to=  1.10000e-07
power_avg_uw        =  4.76538e+00


Total analysis time (seconds) = 0.28312

Total elapsed time (seconds) = 0.361 

Total DRAM available = 16384.000 MB.
DRAM currently available =  293.453 MB.
Maximum ngspice program size =   12.891 MB.
Current ngspice program size =   12.891 MB.

