
Note: No compatibility mode selected!


Circuit: INV seed characterization sample 4102009

Doing analysis at TEMP = 70.732700 and TNOM = 27.000000

Using SPARSE 1.3 as Direct Linear Solver

Initial Transient Solution
--------------------------

Node                                   Voltage
----                                   -------
vdd                                    1.65906
in                                           0
out                                    1.65906
vin#branch                                   0
vdd#branch                        -1.60377e-10

 Reference value :  5.93362e-08
No. of Data Rows : 60047

  Measurements for Transient Analysis

tphl                =  1.55254e-10 targ=  2.19586e-09 trig=  2.04061e-09
tplh                =  1.41602e-10 targ=  2.22634e-08 trig=  2.21218e-08
i_vdd_avg           =  -4.13460e-06 from=  5.00000e-09 to=  1.10001e-07
power_avg_uw        =  6.85955e+00


Total analysis time (seconds) = 0.345011

Total elapsed time (seconds) = 0.426 

Total DRAM available = 16384.000 MB.
DRAM currently available =  233.719 MB.
Maximum ngspice program size =   12.562 MB.
Current ngspice program size =   11.594 MB.

