
Note: No compatibility mode selected!


Circuit: GF180MCU library cell inv_1 I_to_ZN

Doing analysis at TEMP = 76.892574 and TNOM = 27.000000

Using SPARSE 1.3 as Direct Linear Solver

Initial Transient Solution
--------------------------

Node                                   Voltage
----                                   -------
vdd                                    1.87072
i                                            0
zn                                     1.87072
vin#branch                                   0
vdd#branch                        -3.22666e-12

 Reference value :  1.53935e-07
No. of Data Rows : 68034

  Measurements for Transient Analysis

tphl                =  3.55068e-09 targ=  2.99975e-08 trig=  2.64468e-08
tplh                =  6.92863e-09 targ=  1.08269e-07 trig=  1.01340e-07
i_vdd_avg           =  -2.00025e-06 from=  1.00000e-08 to=  3.30005e-07
power_avg_uw        =  3.74191e+00


Total analysis time (seconds) = 0.449478

Total elapsed time (seconds) = 0.530 

Total DRAM available = 16384.000 MB.
DRAM currently available =  136.891 MB.
Maximum ngspice program size =   17.922 MB.
Current ngspice program size =   17.922 MB.

