
Note: No compatibility mode selected!


Circuit: GF180MCU library cell xor2_1 A1_to_Z__A2=0

Doing analysis at TEMP = 16.208940 and TNOM = 27.000000

Using SPARSE 1.3 as Direct Linear Solver

Initial Transient Solution
--------------------------

Node                                   Voltage
----                                   -------
vdd                                    1.94978
a1                                           0
a2                                           0
xu1.i                                  1.94978
z                                  3.67635e-08
xu1.net_0                          1.74883e-09
xu1.net_2                              1.94978
xu1.net_1                              0.80138
vfix_a2#branch                               0
vin#branch                                   0
vdd#branch                        -1.15222e-11

 Reference value :  4.57652e-08
 Reference value :  1.13498e-07
 Reference value :  1.81718e-07
 Reference value :  2.57655e-07
 Reference value :  3.38883e-07
No. of Data Rows : 68034

  Measurements for Transient Analysis

tplh                =  4.73467e-09 targ=  3.14660e-08 trig=  2.67313e-08
tphl                =  2.78840e-09 targ=  1.04982e-07 trig=  1.02194e-07
i_vdd_avg           =  -9.77493e-07 from=  1.00000e-08 to=  3.30003e-07
power_avg_uw        =  1.90590e+00


Total analysis time (seconds) = 1.22305

Total elapsed time (seconds) = 1.306 

Total DRAM available = 16384.000 MB.
DRAM currently available =  124.562 MB.
Maximum ngspice program size =   17.609 MB.
Current ngspice program size =   17.609 MB.

