
Note: No compatibility mode selected!


Circuit: GF180MCU library cell mux2_4 I0_to_Z__I1=0,S=0

Doing analysis at TEMP = -18.797002 and TNOM = 27.000000

Using SPARSE 1.3 as Direct Linear Solver

Initial Transient Solution
--------------------------

Node                                   Voltage
----                                   -------
vdd                                    1.64753
i0                                           0
i1                                           0
s                                            0
xu1.int04                              1.64753
z                                  9.73946e-09
xu1.net_1                          0.000147747
xu1.net_3                              1.01198
xu1.sel1_n                             1.64753
xu1.net_0                              1.64753
xu1.net_2                              1.64753
vfix_s#branch                                0
vfix_i1#branch                               0
vin#branch                                   0
vdd#branch                          -1.396e-11

 Reference value :  2.81775e-08
 Reference value :  6.68919e-08
 Reference value :  1.06792e-07
 Reference value :  1.46536e-07
 Reference value :  1.85403e-07
 Reference value :  2.22057e-07
 Reference value :  2.58647e-07
 Reference value :  2.96321e-07
 Reference value :  3.35466e-07
No. of Data Rows : 68032

  Measurements for Transient Analysis

tplh                =  3.06723e-09 targ=  3.20569e-08 trig=  2.89897e-08
tphl                =  4.63189e-09 targ=  1.13601e-07 trig=  1.08969e-07
i_vdd_avg           =  -9.04524e-07 from=  1.00000e-08 to=  3.30001e-07
power_avg_uw        =  1.49023e+00


Total analysis time (seconds) = 2.96961

Total elapsed time (seconds) = 3.042 

Total DRAM available = 16384.000 MB.
DRAM currently available =  146.172 MB.
Maximum ngspice program size =   15.594 MB.
Current ngspice program size =    9.094 MB.

