
Note: No compatibility mode selected!


Circuit: GF180MCU library cell nor2_1 A1_to_ZN__A2=0

Doing analysis at TEMP = 51.763796 and TNOM = 27.000000

Using SPARSE 1.3 as Direct Linear Solver

Initial Transient Solution
--------------------------

Node                                   Voltage
----                                   -------
vdd                                    1.62362
a1                                           0
a2                                           0
zn                                     1.62362
xu1.net_0                              1.62362
vfix_a2#branch                               0
vin#branch                                   0
vdd#branch                        -3.76902e-12

 Reference value :  1.08581e-07
 Reference value :  2.50694e-07
No. of Data Rows : 68030

  Measurements for Transient Analysis

tphl                =  1.18261e-09 targ=  2.60234e-08 trig=  2.48408e-08
tplh                =  3.32967e-09 targ=  9.98520e-08 trig=  9.65223e-08
i_vdd_avg           =  -3.19616e-07 from=  1.00000e-08 to=  3.30001e-07
power_avg_uw        =  5.18935e-01


Total analysis time (seconds) = 0.642029

Total elapsed time (seconds) = 0.712 

Total DRAM available = 16384.000 MB.
DRAM currently available =  132.422 MB.
Maximum ngspice program size =   16.797 MB.
Current ngspice program size =   16.797 MB.

