
Note: No compatibility mode selected!


Circuit: GF180MCU library cell nand3_4 A1_to_ZN__A2=1,A3=1

Doing analysis at TEMP = 106.530810 and TNOM = 27.000000

Using SPARSE 1.3 as Direct Linear Solver

Initial Transient Solution
--------------------------

Node                                   Voltage
----                                   -------
vdd                                    1.63261
a1                                           0
a2                                     1.63261
a3                                     1.63261
xu1.net_1_3                        4.95694e-08
xu1.net_0                          9.91389e-08
xu1.net_1_2                        4.95694e-08
xu1.net_1_1                        4.95694e-08
xu1.net_1_0                        4.95694e-08
xu1.net_0_0                        9.91389e-08
zn                                     1.63261
vfix_a3#branch                               0
vfix_a2#branch                               0
vin#branch                                   0
vdd#branch                        -3.17057e-11

 Reference value :  2.35814e-08
 Reference value :  5.76597e-08
 Reference value :  8.79897e-08
 Reference value :  1.20697e-07
 Reference value :  1.51247e-07
 Reference value :  1.83322e-07
 Reference value :  2.14465e-07
 Reference value :  2.47520e-07
 Reference value :  2.80787e-07
 Reference value :  3.10807e-07
 Reference value :  3.39572e-07
No. of Data Rows : 68030

  Measurements for Transient Analysis

tphl                =  3.16417e-09 targ=  2.85428e-08 trig=  2.53786e-08
tplh                =  3.69417e-09 targ=  1.01830e-07 trig=  9.81358e-08
i_vdd_avg           =  -2.18350e-06 from=  1.00000e-08 to=  3.30002e-07
power_avg_uw        =  3.56479e+00


Total analysis time (seconds) = 2.95799

Total elapsed time (seconds) = 3.033 

Total DRAM available = 16384.000 MB.
DRAM currently available =  151.359 MB.
Maximum ngspice program size =   16.609 MB.
Current ngspice program size =   16.609 MB.

