
Note: No compatibility mode selected!


Circuit: GF180MCU library cell nand3_1 A1_to_ZN__A2=1,A3=1

Doing analysis at TEMP = 49.552838 and TNOM = 27.000000

Using SPARSE 1.3 as Direct Linear Solver

Initial Transient Solution
--------------------------

Node                                   Voltage
----                                   -------
vdd                                    1.77491
a1                                           0
a2                                     1.77491
a3                                     1.77491
xu1.net_1                          1.32725e-09
xu1.net_0                          2.65449e-09
zn                                     1.77491
vfix_a3#branch                               0
vfix_a2#branch                               0
vin#branch                                   0
vdd#branch                        -2.00041e-12

 Reference value :  7.98436e-08
 Reference value :  1.90448e-07
 Reference value :  3.01175e-07
No. of Data Rows : 68032

  Measurements for Transient Analysis

tphl                =  9.70437e-09 targ=  3.86149e-08 trig=  2.89105e-08
tplh                =  1.16639e-08 targ=  1.20396e-07 trig=  1.08732e-07
i_vdd_avg           =  -2.22352e-06 from=  1.00000e-08 to=  3.30005e-07
power_avg_uw        =  3.94654e+00


Total analysis time (seconds) = 0.853795

Total elapsed time (seconds) = 0.936 

Total DRAM available = 16384.000 MB.
DRAM currently available =  185.875 MB.
Maximum ngspice program size =   18.062 MB.
Current ngspice program size =   18.062 MB.

