
Note: No compatibility mode selected!


Circuit: GF180MCU library cell xor2_4 A1_to_Z__A2=0

Doing analysis at TEMP = 104.144940 and TNOM = 27.000000

Using SPARSE 1.3 as Direct Linear Solver

Initial Transient Solution
--------------------------

Node                                   Voltage
----                                   -------
vdd                                    1.78121
a1                                           0
a2                                           0
xu1.net_2                            0.0486085
xu1.i                                  1.78121
xu1.net_0                          8.34488e-08
xu1.z_neg                              1.78121
z                                  1.40497e-08
xu1.net_1                              1.78121
vfix_a2#branch                               0
vin#branch                                   0
vdd#branch                        -3.00967e-11

 Reference value :  2.53875e-08
 Reference value :  6.18481e-08
 Reference value :  9.80081e-08
 Reference value :  1.37454e-07
 Reference value :  1.74514e-07
 Reference value :  2.12788e-07
 Reference value :  2.52823e-07
 Reference value :  2.93539e-07
 Reference value :  3.32219e-07
No. of Data Rows : 68032

  Measurements for Transient Analysis

tplh                =  2.43511e-09 targ=  2.90479e-08 trig=  2.66128e-08
tphl                =  3.38084e-09 targ=  1.05219e-07 trig=  1.01838e-07
i_vdd_avg           =  -1.34129e-06 from=  1.00000e-08 to=  3.30004e-07
power_avg_uw        =  2.38913e+00


Total analysis time (seconds) = 2.7489

Total elapsed time (seconds) = 2.847 

Total DRAM available = 16384.000 MB.
DRAM currently available =  123.844 MB.
Maximum ngspice program size =   18.516 MB.
Current ngspice program size =   18.516 MB.

