
Note: No compatibility mode selected!


Circuit: GF180MCU library cell nand3_1 A1_to_ZN__A2=1,A3=1

Doing analysis at TEMP = -8.902626 and TNOM = 27.000000

Using SPARSE 1.3 as Direct Linear Solver

Initial Transient Solution
--------------------------

Node                                   Voltage
----                                   -------
vdd                                    1.86559
a1                                           0
a2                                     1.86559
a3                                     1.86559
xu1.net_1                          6.86825e-12
xu1.net_0                          1.37365e-11
zn                                     1.86559
vfix_a3#branch                               0
vfix_a2#branch                               0
vin#branch                                   0
vdd#branch                          -1.877e-12

 Reference value :  6.53550e-08
 Reference value :  1.80957e-07
 Reference value :  2.88077e-07
No. of Data Rows : 68030

  Measurements for Transient Analysis

tphl                =  5.66622e-09 targ=  3.55050e-08 trig=  2.98387e-08
tplh                =  7.25248e-09 targ=  1.18769e-07 trig=  1.11516e-07
i_vdd_avg           =  -1.20113e-06 from=  1.00000e-08 to=  3.30002e-07
power_avg_uw        =  2.24081e+00


Total analysis time (seconds) = 0.869692

Total elapsed time (seconds) = 0.973 

Total DRAM available = 16384.000 MB.
DRAM currently available =  123.844 MB.
Maximum ngspice program size =   19.109 MB.
Current ngspice program size =   19.109 MB.

