
Note: No compatibility mode selected!


Circuit: GF180MCU library cell xor2_4 A1_to_Z__A2=0

Doing analysis at TEMP = -6.744638 and TNOM = 27.000000

Using SPARSE 1.3 as Direct Linear Solver

Initial Transient Solution
--------------------------

Node                                   Voltage
----                                   -------
vdd                                    1.96514
a1                                           0
a2                                           0
xu1.net_2                           0.00419261
xu1.i                                  1.96514
xu1.net_0                          1.69814e-11
xu1.z_neg                              1.96514
z                                  9.51101e-09
xu1.net_1                              1.96514
vfix_a2#branch                               0
vin#branch                                   0
vdd#branch                        -1.42409e-11

 Reference value :  2.64536e-08
 Reference value :  7.03086e-08
 Reference value :  1.09570e-07
 Reference value :  1.46020e-07
 Reference value :  1.87664e-07
 Reference value :  2.24429e-07
 Reference value :  2.65455e-07
 Reference value :  3.10335e-07
No. of Data Rows : 68032

  Measurements for Transient Analysis

tplh                =  1.08964e-09 targ=  2.62102e-08 trig=  2.51205e-08
tphl                =  1.69199e-09 targ=  9.90536e-08 trig=  9.73616e-08
i_vdd_avg           =  -5.44443e-07 from=  1.00000e-08 to=  3.30005e-07
power_avg_uw        =  1.06991e+00


Total analysis time (seconds) = 2.30201

Total elapsed time (seconds) = 2.386 

Total DRAM available = 16384.000 MB.
DRAM currently available =  185.875 MB.
Maximum ngspice program size =   18.734 MB.
Current ngspice program size =   18.734 MB.

