
Note: No compatibility mode selected!


Circuit: GF180MCU library cell nand3_1 A1_to_ZN__A2=1,A3=1

Doing analysis at TEMP = -31.114627 and TNOM = 27.000000

Using SPARSE 1.3 as Direct Linear Solver

Initial Transient Solution
--------------------------

Node                                   Voltage
----                                   -------
vdd                                    1.71799
a1                                           0
a2                                     1.71799
a3                                     1.71799
xu1.net_1                          5.09656e-13
xu1.net_0                          1.01933e-12
zn                                     1.71799
vfix_a3#branch                               0
vfix_a2#branch                               0
vin#branch                                   0
vdd#branch                        -1.72809e-12

 Reference value :  6.16721e-08
 Reference value :  1.70222e-07
 Reference value :  2.77022e-07
No. of Data Rows : 68032

  Measurements for Transient Analysis

tphl                =  3.02508e-09 targ=  2.82974e-08 trig=  2.52723e-08
tplh                =  3.78031e-09 targ=  1.01597e-07 trig=  9.78169e-08
i_vdd_avg           =  -7.41136e-07 from=  1.00000e-08 to=  3.30002e-07
power_avg_uw        =  1.27326e+00


Total analysis time (seconds) = 0.87805

Total elapsed time (seconds) = 0.969 

Total DRAM available = 16384.000 MB.
DRAM currently available =  107.641 MB.
Maximum ngspice program size =   17.609 MB.
Current ngspice program size =   17.609 MB.

