
Note: No compatibility mode selected!


Circuit: GF180MCU library cell mux2_1 I0_to_Z__I1=0,S=0

Doing analysis at TEMP = -37.273852 and TNOM = 27.000000

Using SPARSE 1.3 as Direct Linear Solver

Initial Transient Solution
--------------------------

Node                                   Voltage
----                                   -------
vdd                                    1.62248
i0                                           0
i1                                           0
s                                            0
xu1.int04                              1.62248
z                                   9.2471e-09
xu1.net_1                          0.000161545
xu1.net_3                              1.03887
xu1.sel1_n                             1.62248
xu1.net_0                              1.62248
xu1.net_2                              1.62248
vfix_s#branch                                0
vfix_i1#branch                               0
vin#branch                                   0
vdd#branch                        -8.70526e-12

 Reference value :  4.61974e-08
 Reference value :  1.00132e-07
 Reference value :  1.59107e-07
 Reference value :  2.17762e-07
 Reference value :  2.76077e-07
 Reference value :  3.35282e-07
No. of Data Rows : 68032

  Measurements for Transient Analysis

tplh                =  8.66606e-09 targ=  3.68860e-08 trig=  2.82199e-08
tphl                =  6.19640e-09 targ=  1.12856e-07 trig=  1.06660e-07
i_vdd_avg           =  -1.90458e-06 from=  1.00000e-08 to=  3.30002e-07
power_avg_uw        =  3.09014e+00


Total analysis time (seconds) = 1.55428

Total elapsed time (seconds) = 1.627 

Total DRAM available = 16384.000 MB.
DRAM currently available =  132.422 MB.
Maximum ngspice program size =   18.672 MB.
Current ngspice program size =   18.672 MB.

