
Note: No compatibility mode selected!


Circuit: GF180MCU library cell nor2_4 A1_to_ZN__A2=0

Doing analysis at TEMP = 67.593107 and TNOM = 27.000000

Using SPARSE 1.3 as Direct Linear Solver

Initial Transient Solution
--------------------------

Node                                   Voltage
----                                   -------
vdd                                    1.92234
a1                                           0
a2                                           0
zn                                     1.92234
xu1.net_0_0                            1.92234
xu1.net_0_1                            1.92234
xu1.net_0_2                            1.92234
xu1.net_0_3                            1.92234
vfix_a2#branch                               0
vin#branch                                   0
vdd#branch                        -2.19584e-11

 Reference value :  2.73025e-08
 Reference value :  7.03407e-08
 Reference value :  1.14014e-07
 Reference value :  1.58009e-07
 Reference value :  2.00201e-07
 Reference value :  2.48316e-07
 Reference value :  2.90879e-07
 Reference value :  3.34574e-07
No. of Data Rows : 68034

  Measurements for Transient Analysis

tphl                =  1.06493e-09 targ=  2.75940e-08 trig=  2.65291e-08
tplh                =  2.36389e-09 targ=  1.03951e-07 trig=  1.01587e-07
i_vdd_avg           =  -8.71359e-07 from=  1.00000e-08 to=  3.30004e-07
power_avg_uw        =  1.67505e+00


Total analysis time (seconds) = 2.25562

Total elapsed time (seconds) = 2.333 

Total DRAM available = 16384.000 MB.
DRAM currently available =  127.719 MB.
Maximum ngspice program size =   18.688 MB.
Current ngspice program size =   18.688 MB.

