
Note: No compatibility mode selected!


Circuit: GF180MCU library cell inv_4 I_to_ZN

Doing analysis at TEMP = 8.213284 and TNOM = 27.000000

Using SPARSE 1.3 as Direct Linear Solver

Initial Transient Solution
--------------------------

Node                                   Voltage
----                                   -------
vdd                                    1.87826
i                                            0
zn                                     1.87826
vin#branch                                   0
vdd#branch                        -7.58422e-12

 Reference value :  5.22800e-08
 Reference value :  1.32257e-07
 Reference value :  2.15450e-07
 Reference value :  2.89717e-07
No. of Data Rows : 68030

  Measurements for Transient Analysis

tphl                =  1.01738e-09 targ=  3.06086e-08 trig=  2.95912e-08
tplh                =  2.85865e-09 targ=  1.13632e-07 trig=  1.10774e-07
i_vdd_avg           =  -7.68814e-07 from=  1.00000e-08 to=  3.30002e-07
power_avg_uw        =  1.44403e+00


Total analysis time (seconds) = 1.31032

Total elapsed time (seconds) = 1.403 

Total DRAM available = 16384.000 MB.
DRAM currently available =   81.375 MB.
Maximum ngspice program size =   18.078 MB.
Current ngspice program size =   18.078 MB.

