
Note: No compatibility mode selected!


Circuit: GF180MCU library cell nand2_1 A1_to_ZN__A2=1

Doing analysis at TEMP = 59.822655 and TNOM = 27.000000

Using SPARSE 1.3 as Direct Linear Solver

Initial Transient Solution
--------------------------

Node                                   Voltage
----                                   -------
vdd                                    1.90883
a1                                           0
a2                                     1.90883
xu1.net_0                          2.67733e-09
zn                                     1.90883
vfix_a2#branch                               0
vin#branch                                   0
vdd#branch                        -2.38256e-12

 Reference value :  1.02630e-07
 Reference value :  2.40676e-07
No. of Data Rows : 68034

  Measurements for Transient Analysis

tphl                =  5.31376e-09 targ=  3.07481e-08 trig=  2.54344e-08
tplh                =  7.36799e-09 targ=  1.05671e-07 trig=  9.83031e-08
i_vdd_avg           =  -2.34390e-06 from=  1.00000e-08 to=  3.30005e-07
power_avg_uw        =  4.47412e+00


Total analysis time (seconds) = 0.715468

Total elapsed time (seconds) = 0.800 

Total DRAM available = 16384.000 MB.
DRAM currently available =  102.234 MB.
Maximum ngspice program size =   16.891 MB.
Current ngspice program size =   16.891 MB.

