
Note: No compatibility mode selected!


Circuit: GF180MCU library cell nor2_4 A1_to_ZN__A2=0

Doing analysis at TEMP = 108.756230 and TNOM = 27.000000

Using SPARSE 1.3 as Direct Linear Solver

Initial Transient Solution
--------------------------

Node                                   Voltage
----                                   -------
vdd                                    1.74805
a1                                           0
a2                                           0
zn                                     1.74805
xu1.net_0_0                            1.74805
xu1.net_0_1                            1.74805
xu1.net_0_2                            1.74805
xu1.net_0_3                            1.74805
vfix_a2#branch                               0
vin#branch                                   0
vdd#branch                        -7.38199e-11

 Reference value :  2.92075e-08
 Reference value :  7.35265e-08
 Reference value :  1.15150e-07
 Reference value :  1.62320e-07
 Reference value :  2.08291e-07
 Reference value :  2.58051e-07
 Reference value :  3.12370e-07
No. of Data Rows : 68032

  Measurements for Transient Analysis

tphl                =  2.94001e-09 targ=  3.15220e-08 trig=  2.85820e-08
tplh                =  6.21585e-09 targ=  1.13962e-07 trig=  1.07746e-07
i_vdd_avg           =  -2.18349e-06 from=  1.00000e-08 to=  3.30000e-07
power_avg_uw        =  3.81685e+00


Total analysis time (seconds) = 1.89308

Total elapsed time (seconds) = 1.975 

Total DRAM available = 16384.000 MB.
DRAM currently available =  124.562 MB.
Maximum ngspice program size =   16.750 MB.
Current ngspice program size =   16.750 MB.

