
Note: No compatibility mode selected!


Circuit: GF180MCU library cell nand2_4 A1_to_ZN__A2=1

Doing analysis at TEMP = 10.520184 and TNOM = 27.000000

Using SPARSE 1.3 as Direct Linear Solver

Initial Transient Solution
--------------------------

Node                                   Voltage
----                                   -------
vdd                                    1.97598
a1                                           0
a2                                     1.97598
xu1.net_0_0                        4.84415e-11
zn                                     1.97598
xu1.net_0_1                        4.84413e-11
xu1.net_0_2                        4.84415e-11
xu1.net_0_3                        4.84413e-11
vfix_a2#branch                               0
vin#branch                                   0
vdd#branch                        -7.98426e-12

 Reference value :  3.67419e-08
 Reference value :  8.10669e-08
 Reference value :  1.23116e-07
 Reference value :  1.65826e-07
 Reference value :  2.12782e-07
 Reference value :  2.57142e-07
 Reference value :  2.98521e-07
 Reference value :  3.39646e-07
No. of Data Rows : 68032

  Measurements for Transient Analysis

tphl                =  2.53587e-09 targ=  3.07806e-08 trig=  2.82447e-08
tplh                =  3.86821e-09 targ=  1.10602e-07 trig=  1.06734e-07
i_vdd_avg           =  -2.52051e-06 from=  1.00000e-08 to=  3.30001e-07
power_avg_uw        =  4.98049e+00


Total analysis time (seconds) = 2.10944

Total elapsed time (seconds) = 2.185 

Total DRAM available = 16384.000 MB.
DRAM currently available =  122.062 MB.
Maximum ngspice program size =   17.797 MB.
Current ngspice program size =   17.797 MB.

