
Note: No compatibility mode selected!


Circuit: GF180MCU library cell inv_4 I_to_ZN

Doing analysis at TEMP = -25.374064 and TNOM = 27.000000

Using SPARSE 1.3 as Direct Linear Solver

Initial Transient Solution
--------------------------

Node                                   Voltage
----                                   -------
vdd                                    1.75984
i                                            0
zn                                     1.75984
vin#branch                                   0
vdd#branch                        -7.08018e-12

 Reference value :  6.76350e-08
 Reference value :  1.62363e-07
 Reference value :  2.52365e-07
 Reference value :  3.39138e-07
No. of Data Rows : 68034

  Measurements for Transient Analysis

tphl                =  4.72391e-10 targ=  2.53887e-08 trig=  2.49163e-08
tplh                =  8.47372e-10 targ=  9.75962e-08 trig=  9.67488e-08
i_vdd_avg           =  -3.61502e-07 from=  1.00000e-08 to=  3.30003e-07
power_avg_uw        =  6.36185e-01


Total analysis time (seconds) = 1.02491

Total elapsed time (seconds) = 1.083 

Total DRAM available = 16384.000 MB.
DRAM currently available =  123.812 MB.
Maximum ngspice program size =   16.922 MB.
Current ngspice program size =   16.922 MB.

