
Note: No compatibility mode selected!


Circuit: GF180MCU library cell mux2_4 I0_to_Z__I1=0,S=0

Doing analysis at TEMP = 30.972551 and TNOM = 27.000000

Using SPARSE 1.3 as Direct Linear Solver

Initial Transient Solution
--------------------------

Node                                   Voltage
----                                   -------
vdd                                     1.7927
i0                                           0
i1                                           0
s                                            0
xu1.int04                               1.7927
z                                  1.09275e-08
xu1.net_1                            0.0114421
xu1.net_3                              1.21313
xu1.sel1_n                              1.7927
xu1.net_0                               1.7927
xu1.net_2                               1.7927
vfix_s#branch                                0
vfix_i1#branch                               0
vin#branch                                   0
vdd#branch                        -1.55463e-11

 Reference value :  2.58275e-08
 Reference value :  6.41950e-08
 Reference value :  1.02690e-07
 Reference value :  1.38472e-07
 Reference value :  1.75342e-07
 Reference value :  2.13910e-07
 Reference value :  2.54895e-07
 Reference value :  2.92327e-07
 Reference value :  3.33247e-07
No. of Data Rows : 68030

  Measurements for Transient Analysis

tplh                =  2.59618e-09 targ=  2.98974e-08 trig=  2.73012e-08
tphl                =  3.48390e-09 targ=  1.07388e-07 trig=  1.03904e-07
i_vdd_avg           =  -1.50834e-06 from=  1.00000e-08 to=  3.30002e-07
power_avg_uw        =  2.70401e+00


Total analysis time (seconds) = 2.52586

Total elapsed time (seconds) = 2.612 

Total DRAM available = 16384.000 MB.
DRAM currently available =  114.922 MB.
Maximum ngspice program size =   17.953 MB.
Current ngspice program size =   17.953 MB.

