
Note: No compatibility mode selected!


Circuit: GF180MCU library cell mux2_1 I0_to_Z__I1=0,S=0

Doing analysis at TEMP = 62.796880 and TNOM = 27.000000

Using SPARSE 1.3 as Direct Linear Solver

Initial Transient Solution
--------------------------

Node                                   Voltage
----                                   -------
vdd                                     1.8898
i0                                           0
i1                                           0
s                                            0
xu1.int04                               1.8898
z                                   1.1786e-08
xu1.net_1                            0.0430034
xu1.net_3                              1.40328
xu1.sel1_n                              1.8898
xu1.net_0                               1.8898
xu1.net_2                               1.8898
vfix_s#branch                                0
vfix_i1#branch                               0
vin#branch                                   0
vdd#branch                        -1.54801e-11

 Reference value :  3.32025e-08
 Reference value :  8.63093e-08
 Reference value :  1.41961e-07
 Reference value :  1.94308e-07
 Reference value :  2.50219e-07
 Reference value :  3.04846e-07
No. of Data Rows : 68030

  Measurements for Transient Analysis

tplh                =  5.49614e-09 targ=  3.47095e-08 trig=  2.92134e-08
tphl                =  5.00198e-09 targ=  1.14642e-07 trig=  1.09640e-07
i_vdd_avg           =  -1.87265e-06 from=  1.00000e-08 to=  3.30001e-07
power_avg_uw        =  3.53894e+00


Total analysis time (seconds) = 1.91901

Total elapsed time (seconds) = 2.012 

Total DRAM available = 16384.000 MB.
DRAM currently available =  123.844 MB.
Maximum ngspice program size =   17.438 MB.
Current ngspice program size =   17.438 MB.

