
Note: No compatibility mode selected!


Circuit: GF180MCU library cell nor2_4 A1_to_ZN__A2=0

Doing analysis at TEMP = -21.068002 and TNOM = 27.000000

Using SPARSE 1.3 as Direct Linear Solver

Initial Transient Solution
--------------------------

Node                                   Voltage
----                                   -------
vdd                                    1.72821
a1                                           0
a2                                           0
zn                                     1.72821
xu1.net_0_0                            1.72821
xu1.net_0_1                            1.72821
xu1.net_0_2                            1.72821
xu1.net_0_3                            1.72821
vfix_a2#branch                               0
vin#branch                                   0
vdd#branch                         -1.3909e-11

 Reference value :  2.85475e-08
 Reference value :  7.15848e-08
 Reference value :  1.12712e-07
 Reference value :  1.55507e-07
 Reference value :  1.97890e-07
 Reference value :  2.38425e-07
 Reference value :  2.80307e-07
 Reference value :  3.22662e-07
No. of Data Rows : 68030

  Measurements for Transient Analysis

tphl                =  2.58086e-09 targ=  3.05645e-08 trig=  2.79837e-08
tplh                =  5.20356e-09 targ=  1.11155e-07 trig=  1.05951e-07
i_vdd_avg           =  -1.75997e-06 from=  1.00000e-08 to=  3.30002e-07
power_avg_uw        =  3.04161e+00


Total analysis time (seconds) = 2.77083

Total elapsed time (seconds) = 2.874 

Total DRAM available = 16384.000 MB.
DRAM currently available =  128.203 MB.
Maximum ngspice program size =   19.094 MB.
Current ngspice program size =   19.094 MB.

