
Note: No compatibility mode selected!


Circuit: GF180MCU library cell nand3_4 A1_to_ZN__A2=1,A3=1

Doing analysis at TEMP = 22.288603 and TNOM = 27.000000

Using SPARSE 1.3 as Direct Linear Solver

Initial Transient Solution
--------------------------

Node                                   Voltage
----                                   -------
vdd                                    1.80231
a1                                           0
a2                                     1.80231
a3                                     1.80231
xu1.net_1_3                        1.47381e-10
xu1.net_0                          2.94762e-10
xu1.net_1_2                        1.47381e-10
xu1.net_1_1                        1.47381e-10
xu1.net_1_0                        1.47381e-10
xu1.net_0_0                        2.94762e-10
zn                                     1.80231
vfix_a3#branch                               0
vfix_a2#branch                               0
vin#branch                                   0
vdd#branch                        -7.35457e-12

 Reference value :  1.92264e-08
 Reference value :  4.77214e-08
 Reference value :  7.67964e-08
 Reference value :  1.05090e-07
 Reference value :  1.33785e-07
 Reference value :  1.63350e-07
 Reference value :  1.91916e-07
 Reference value :  2.22146e-07
 Reference value :  2.52226e-07
 Reference value :  2.82430e-07
 Reference value :  3.12205e-07
No. of Data Rows : 68032

  Measurements for Transient Analysis

tphl                =  1.80701e-09 targ=  2.84065e-08 trig=  2.65994e-08
tplh                =  2.49191e-09 targ=  1.04290e-07 trig=  1.01798e-07
i_vdd_avg           =  -1.04079e-06 from=  1.00000e-08 to=  3.30000e-07
power_avg_uw        =  1.87582e+00


Total analysis time (seconds) = 3.99748

Total elapsed time (seconds) = 4.089 

Total DRAM available = 16384.000 MB.
DRAM currently available =  119.094 MB.
Maximum ngspice program size =   18.203 MB.
Current ngspice program size =   13.000 MB.

