
Note: No compatibility mode selected!


Circuit: GF180MCU library cell oai21_1 A1_to_ZN__A2=0,B=1

Doing analysis at TEMP = 78.516127 and TNOM = 27.000000

Using SPARSE 1.3 as Direct Linear Solver

Initial Transient Solution
--------------------------

Node                                   Voltage
----                                   -------
vdd                                    1.72729
a1                                           0
a2                                           0
b                                      1.72729
zn                                     1.72729
xu1.net_0                          1.91169e-08
xu1.net_1                              1.72729
vfix_b#branch                                0
vfix_a2#branch                               0
vin#branch                                   0
vdd#branch                        -6.25792e-12

 Reference value :  6.76592e-08
 Reference value :  1.65151e-07
 Reference value :  2.69331e-07
No. of Data Rows : 68030

  Measurements for Transient Analysis

tphl                =  1.40310e-09 targ=  2.91865e-08 trig=  2.77834e-08
tplh                =  3.10564e-09 targ=  1.08456e-07 trig=  1.05350e-07
i_vdd_avg           =  -1.65204e-07 from=  1.00000e-08 to=  3.30001e-07
power_avg_uw        =  2.85356e-01


Total analysis time (seconds) = 1.08556

Total elapsed time (seconds) = 1.180 

Total DRAM available = 16384.000 MB.
DRAM currently available =  136.688 MB.
Maximum ngspice program size =   20.250 MB.
Current ngspice program size =   20.250 MB.

