
Note: No compatibility mode selected!


Circuit: GF180MCU library cell oai21_1 A1_to_ZN__A2=0,B=1

Doing analysis at TEMP = 8.301410 and TNOM = 27.000000

Using SPARSE 1.3 as Direct Linear Solver

Initial Transient Solution
--------------------------

Node                                   Voltage
----                                   -------
vdd                                    1.64538
a1                                           0
a2                                           0
b                                      1.64538
zn                                     1.64538
xu1.net_0                          8.57228e-11
xu1.net_1                              1.64538
vfix_b#branch                                0
vfix_a2#branch                               0
vin#branch                                   0
vdd#branch                        -3.32481e-12

 Reference value :  7.14770e-08
 Reference value :  1.73801e-07
 Reference value :  2.77376e-07
No. of Data Rows : 68032

  Measurements for Transient Analysis

tphl                =  5.26833e-09 targ=  3.33181e-08 trig=  2.80497e-08
tplh                =  1.21456e-08 targ=  1.18295e-07 trig=  1.06149e-07
i_vdd_avg           =  -1.19164e-06 from=  1.00000e-08 to=  3.30001e-07
power_avg_uw        =  1.96070e+00


Total analysis time (seconds) = 0.921648

Total elapsed time (seconds) = 1.015 

Total DRAM available = 16384.000 MB.
DRAM currently available =  125.750 MB.
Maximum ngspice program size =   17.375 MB.
Current ngspice program size =   17.375 MB.

