
Note: No compatibility mode selected!


Circuit: GF180MCU library cell nor2_1 A1_to_ZN__A2=0

Doing analysis at TEMP = 20.245329 and TNOM = 27.000000

Using SPARSE 1.3 as Direct Linear Solver

Initial Transient Solution
--------------------------

Node                                   Voltage
----                                   -------
vdd                                    1.76167
a1                                           0
a2                                           0
zn                                     1.76167
xu1.net_0                              1.76167
vfix_a2#branch                               0
vin#branch                                   0
vdd#branch                         -3.5919e-12

 Reference value :  9.43832e-08
 Reference value :  2.32568e-07
No. of Data Rows : 68032

  Measurements for Transient Analysis

tphl                =  3.45752e-09 targ=  3.19829e-08 trig=  2.85254e-08
tplh                =  7.32765e-09 targ=  1.14904e-07 trig=  1.07576e-07
i_vdd_avg           =  -7.44069e-07 from=  1.00000e-08 to=  3.30004e-07
power_avg_uw        =  1.31081e+00


Total analysis time (seconds) = 0.695981

Total elapsed time (seconds) = 0.787 

Total DRAM available = 16384.000 MB.
DRAM currently available =  114.922 MB.
Maximum ngspice program size =   18.297 MB.
Current ngspice program size =   18.297 MB.

