
Note: No compatibility mode selected!


Circuit: GF180MCU library cell nand2_1 A1_to_ZN__A2=1

Doing analysis at TEMP = -32.712142 and TNOM = 27.000000

Using SPARSE 1.3 as Direct Linear Solver

Initial Transient Solution
--------------------------

Node                                   Voltage
----                                   -------
vdd                                    1.67233
a1                                           0
a2                                     1.67233
xu1.net_0                          4.20368e-13
zn                                     1.67233
vfix_a2#branch                               0
vin#branch                                   0
vdd#branch                        -1.68241e-12

 Reference value :  1.03329e-07
 Reference value :  2.56814e-07
No. of Data Rows : 68030

  Measurements for Transient Analysis

tphl                =  4.22290e-09 targ=  3.36564e-08 trig=  2.94335e-08
tplh                =  6.09352e-09 targ=  1.16394e-07 trig=  1.10300e-07
i_vdd_avg           =  -6.67060e-07 from=  1.00000e-08 to=  3.30001e-07
power_avg_uw        =  1.11554e+00


Total analysis time (seconds) = 0.615176

Total elapsed time (seconds) = 0.688 

Total DRAM available = 16384.000 MB.
DRAM currently available =  219.938 MB.
Maximum ngspice program size =   17.797 MB.
Current ngspice program size =   17.797 MB.

