
Note: No compatibility mode selected!


Circuit: GF180MCU library cell mux2_4 I0_to_Z__I1=0,S=0

Doing analysis at TEMP = 51.114091 and TNOM = 27.000000

Using SPARSE 1.3 as Direct Linear Solver

Initial Transient Solution
--------------------------

Node                                   Voltage
----                                   -------
vdd                                    1.83846
i0                                           0
i1                                           0
s                                            0
xu1.int04                              1.83846
z                                  1.14782e-08
xu1.net_1                             0.025075
xu1.net_3                              1.28233
xu1.sel1_n                             1.83846
xu1.net_0                              1.83846
xu1.net_2                              1.83846
vfix_s#branch                                0
vfix_i1#branch                               0
vin#branch                                   0
vdd#branch                         -1.6432e-11

 Reference value :  2.78159e-08
 Reference value :  6.81359e-08
 Reference value :  1.13079e-07
 Reference value :  1.54959e-07
 Reference value :  1.96041e-07
 Reference value :  2.38981e-07
 Reference value :  2.80489e-07
 Reference value :  3.19534e-07
No. of Data Rows : 68034

  Measurements for Transient Analysis

tplh                =  1.16836e-09 targ=  2.69825e-08 trig=  2.58142e-08
tphl                =  2.00965e-09 targ=  1.01452e-07 trig=  9.94426e-08
i_vdd_avg           =  -2.73608e-07 from=  1.00000e-08 to=  3.30004e-07
power_avg_uw        =  5.03019e-01


Total analysis time (seconds) = 2.27313

Total elapsed time (seconds) = 2.347 

Total DRAM available = 16384.000 MB.
DRAM currently available =  128.125 MB.
Maximum ngspice program size =   17.328 MB.
Current ngspice program size =   17.328 MB.

