
Note: No compatibility mode selected!


Circuit: GF180MCU library cell aoi21_1 A1_to_ZN__A2=1,B=0

Doing analysis at TEMP = 32.515437 and TNOM = 27.000000

Using SPARSE 1.3 as Direct Linear Solver

Initial Transient Solution
--------------------------

Node                                   Voltage
----                                   -------
vdd                                    1.67035
a1                                           0
a2                                     1.67035
b                                            0
xu1.net_0                          3.64978e-10
zn                                     1.67035
xu1.net_1                              1.67035
vfix_b#branch                                0
vfix_a2#branch                               0
vin#branch                                   0
vdd#branch                        -3.49131e-12

 Reference value :  7.74199e-08
 Reference value :  1.79032e-07
 Reference value :  2.84932e-07
No. of Data Rows : 68030

  Measurements for Transient Analysis

tphl                =  1.37290e-09 targ=  2.69416e-08 trig=  2.55687e-08
tplh                =  2.72437e-09 targ=  1.01431e-07 trig=  9.87062e-08
i_vdd_avg           =  -2.30292e-07 from=  1.00000e-08 to=  3.30002e-07
power_avg_uw        =  3.84670e-01


Total analysis time (seconds) = 0.960596

Total elapsed time (seconds) = 1.038 

Total DRAM available = 16384.000 MB.
DRAM currently available =  128.125 MB.
Maximum ngspice program size =   17.047 MB.
Current ngspice program size =   17.047 MB.

