
Note: No compatibility mode selected!


Circuit: GF180MCU library cell inv_1 I_to_ZN

Doing analysis at TEMP = -2.910608 and TNOM = 27.000000

Using SPARSE 1.3 as Direct Linear Solver

Initial Transient Solution
--------------------------

Node                                   Voltage
----                                   -------
vdd                                    1.84944
i                                            0
zn                                     1.84944
vin#branch                                   0
vdd#branch                        -1.86204e-12

 Reference value :  1.61790e-07
No. of Data Rows : 68032

  Measurements for Transient Analysis

tphl                =  1.64532e-09 targ=  2.60547e-08 trig=  2.44094e-08
tplh                =  3.65989e-09 targ=  9.88881e-08 trig=  9.52282e-08
i_vdd_avg           =  -1.30186e-06 from=  1.00000e-08 to=  3.30000e-07
power_avg_uw        =  2.40772e+00


Total analysis time (seconds) = 0.458578

Total elapsed time (seconds) = 0.552 

Total DRAM available = 16384.000 MB.
DRAM currently available =  122.062 MB.
Maximum ngspice program size =   17.938 MB.
Current ngspice program size =   17.938 MB.

