
Note: No compatibility mode selected!


Circuit: GF180MCU library cell nand2_1 A1_to_ZN__A2=1

Doing analysis at TEMP = 92.164911 and TNOM = 27.000000

Using SPARSE 1.3 as Direct Linear Solver

Initial Transient Solution
--------------------------

Node                                   Voltage
----                                   -------
vdd                                    1.74879
a1                                           0
a2                                     1.74879
xu1.net_0                           2.1529e-08
zn                                     1.74879
vfix_a2#branch                               0
vin#branch                                   0
vdd#branch                         -4.8411e-12

 Reference value :  9.26581e-08
 Reference value :  2.41228e-07
No. of Data Rows : 68032

  Measurements for Transient Analysis

tphl                =  4.96635e-09 targ=  3.33917e-08 trig=  2.84253e-08
tplh                =  6.84504e-09 targ=  1.14121e-07 trig=  1.07276e-07
i_vdd_avg           =  -1.17201e-06 from=  1.00000e-08 to=  3.30004e-07
power_avg_uw        =  2.04960e+00


Total analysis time (seconds) = 0.633821

Total elapsed time (seconds) = 0.716 

Total DRAM available = 16384.000 MB.
DRAM currently available =   81.375 MB.
Maximum ngspice program size =   17.328 MB.
Current ngspice program size =   17.328 MB.

