
Note: No compatibility mode selected!


Circuit: GF180MCU library cell inv_1 I_to_ZN

Doing analysis at TEMP = 102.104790 and TNOM = 27.000000

Using SPARSE 1.3 as Direct Linear Solver

Initial Transient Solution
--------------------------

Node                                   Voltage
----                                   -------
vdd                                    1.79653
i                                            0
zn                                     1.79653
vin#branch                                   0
vdd#branch                        -7.18645e-12

 Reference value :  1.56792e-07
No. of Data Rows : 68032

  Measurements for Transient Analysis

tphl                =  3.34818e-09 targ=  2.86656e-08 trig=  2.53175e-08
tplh                =  7.08377e-09 targ=  1.05036e-07 trig=  9.79524e-08
i_vdd_avg           =  -1.99008e-06 from=  1.00000e-08 to=  3.30002e-07
power_avg_uw        =  3.57523e+00


Total analysis time (seconds) = 0.391536

Total elapsed time (seconds) = 0.465 

Total DRAM available = 16384.000 MB.
DRAM currently available =  151.359 MB.
Maximum ngspice program size =   19.000 MB.
Current ngspice program size =   19.000 MB.

