
Note: No compatibility mode selected!


Circuit: GF180MCU library cell aoi21_1 A1_to_ZN__A2=1,B=0

Doing analysis at TEMP = -27.875601 and TNOM = 27.000000

Using SPARSE 1.3 as Direct Linear Solver

Initial Transient Solution
--------------------------

Node                                   Voltage
----                                   -------
vdd                                    1.69488
a1                                           0
a2                                     1.69488
b                                            0
xu1.net_0                          7.77659e-13
zn                                     1.69488
xu1.net_1                              1.69488
vfix_b#branch                                0
vfix_a2#branch                               0
vin#branch                                   0
vdd#branch                        -3.41014e-12

 Reference value :  8.18299e-08
 Reference value :  1.91083e-07
 Reference value :  3.02112e-07
No. of Data Rows : 68030

  Measurements for Transient Analysis

tphl                =  4.13494e-09 targ=  3.36011e-08 trig=  2.94662e-08
tplh                =  7.95633e-09 targ=  1.18355e-07 trig=  1.10399e-07
i_vdd_avg           =  -6.72225e-07 from=  1.00000e-08 to=  3.30002e-07
power_avg_uw        =  1.13934e+00


Total analysis time (seconds) = 0.854864

Total elapsed time (seconds) = 0.910 

Total DRAM available = 16384.000 MB.
DRAM currently available =  219.938 MB.
Maximum ngspice program size =   16.266 MB.
Current ngspice program size =   16.266 MB.

