
Note: No compatibility mode selected!


Circuit: GF180MCU library cell inv_4 I_to_ZN

Doing analysis at TEMP = 69.584223 and TNOM = 27.000000

Using SPARSE 1.3 as Direct Linear Solver

Initial Transient Solution
--------------------------

Node                                   Voltage
----                                   -------
vdd                                    1.97699
i                                            0
zn                                     1.97699
vin#branch                                   0
vdd#branch                          -1.154e-11

 Reference value :  5.27586e-08
 Reference value :  1.32200e-07
 Reference value :  2.09454e-07
 Reference value :  2.89465e-07
No. of Data Rows : 68032

  Measurements for Transient Analysis

tphl                =  1.13979e-09 targ=  2.72304e-08 trig=  2.60906e-08
tplh                =  2.05563e-09 targ=  1.02327e-07 trig=  1.00272e-07
i_vdd_avg           =  -1.57307e-06 from=  1.00000e-08 to=  3.30005e-07
power_avg_uw        =  3.10995e+00


Total analysis time (seconds) = 1.33572

Total elapsed time (seconds) = 1.412 

Total DRAM available = 16384.000 MB.
DRAM currently available =  128.203 MB.
Maximum ngspice program size =   18.578 MB.
Current ngspice program size =   18.578 MB.

