
Note: No compatibility mode selected!


Circuit: GF180MCU library cell oai21_1 A1_to_ZN__A2=0,B=1

Doing analysis at TEMP = -27.661439 and TNOM = 27.000000

Using SPARSE 1.3 as Direct Linear Solver

Initial Transient Solution
--------------------------

Node                                   Voltage
----                                   -------
vdd                                    1.83148
a1                                           0
a2                                           0
b                                      1.83148
zn                                     1.83148
xu1.net_0                          1.53319e-12
xu1.net_1                              1.83148
vfix_b#branch                                0
vfix_a2#branch                               0
vin#branch                                   0
vdd#branch                        -3.68329e-12

 Reference value :  7.67774e-08
 Reference value :  1.89118e-07
 Reference value :  3.11842e-07
No. of Data Rows : 68032

  Measurements for Transient Analysis

tphl                =  3.72580e-09 targ=  3.34132e-08 trig=  2.96874e-08
tplh                =  7.09355e-09 targ=  1.18156e-07 trig=  1.11062e-07
i_vdd_avg           =  -7.42062e-07 from=  1.00000e-08 to=  3.30002e-07
power_avg_uw        =  1.35907e+00


Total analysis time (seconds) = 0.762934

Total elapsed time (seconds) = 0.846 

Total DRAM available = 16384.000 MB.
DRAM currently available =  132.422 MB.
Maximum ngspice program size =   17.031 MB.
Current ngspice program size =   17.031 MB.

