
Note: No compatibility mode selected!


Circuit: GF180MCU library cell mux2_1 I0_to_Z__I1=0,S=0

Doing analysis at TEMP = 3.329356 and TNOM = 27.000000

Using SPARSE 1.3 as Direct Linear Solver

Initial Transient Solution
--------------------------

Node                                   Voltage
----                                   -------
vdd                                    1.78769
i0                                           0
i1                                           0
s                                            0
xu1.int04                              1.78769
z                                  1.00895e-08
xu1.net_1                           0.00805773
xu1.net_3                              1.23956
xu1.sel1_n                             1.78769
xu1.net_0                              1.78769
xu1.net_2                              1.78769
vfix_s#branch                                0
vfix_i1#branch                               0
vin#branch                                   0
vdd#branch                        -9.85869e-12

 Reference value :  3.85813e-08
 Reference value :  9.59513e-08
 Reference value :  1.51795e-07
 Reference value :  2.13226e-07
 Reference value :  2.68170e-07
 Reference value :  3.23980e-07
No. of Data Rows : 68032

  Measurements for Transient Analysis

tplh                =  4.82825e-09 targ=  2.98327e-08 trig=  2.50044e-08
tphl                =  3.23416e-09 targ=  1.00247e-07 trig=  9.70132e-08
i_vdd_avg           =  -1.45596e-06 from=  1.00000e-08 to=  3.30000e-07
power_avg_uw        =  2.60280e+00


Total analysis time (seconds) = 2.00221

Total elapsed time (seconds) = 2.082 

Total DRAM available = 16384.000 MB.
DRAM currently available =  102.984 MB.
Maximum ngspice program size =   17.281 MB.
Current ngspice program size =    8.672 MB.

