
Note: No compatibility mode selected!


Circuit: GF180MCU library cell xor2_4 A1_to_Z__A2=0

Doing analysis at TEMP = 75.431178 and TNOM = 27.000000

Using SPARSE 1.3 as Direct Linear Solver

Initial Transient Solution
--------------------------

Node                                   Voltage
----                                   -------
vdd                                    1.68333
a1                                           0
a2                                           0
xu1.net_2                            0.0437063
xu1.i                                  1.68333
xu1.net_0                          1.59662e-08
xu1.z_neg                              1.68333
z                                  1.26204e-08
xu1.net_1                              1.68333
vfix_a2#branch                               0
vin#branch                                   0
vdd#branch                        -1.56223e-11

 Reference value :  2.93975e-08
 Reference value :  7.07649e-08
 Reference value :  1.09985e-07
 Reference value :  1.49997e-07
 Reference value :  1.92288e-07
 Reference value :  2.30590e-07
 Reference value :  2.69095e-07
 Reference value :  3.08957e-07
No. of Data Rows : 68030

  Measurements for Transient Analysis

tplh                =  4.08061e-09 targ=  3.31568e-08 trig=  2.90762e-08
tphl                =  5.34632e-09 targ=  1.14575e-07 trig=  1.09229e-07
i_vdd_avg           =  -2.28845e-06 from=  1.00000e-08 to=  3.30002e-07
power_avg_uw        =  3.85221e+00


Total analysis time (seconds) = 2.37964

Total elapsed time (seconds) = 2.456 

Total DRAM available = 16384.000 MB.
DRAM currently available =   83.625 MB.
Maximum ngspice program size =   16.172 MB.
Current ngspice program size =   16.172 MB.

