
Note: No compatibility mode selected!


Circuit: GF180MCU library cell nand2_4 A1_to_ZN__A2=1

Doing analysis at TEMP = 93.539994 and TNOM = 27.000000

Using SPARSE 1.3 as Direct Linear Solver

Initial Transient Solution
--------------------------

Node                                   Voltage
----                                   -------
vdd                                    1.84943
a1                                           0
a2                                     1.84943
xu1.net_0_0                        2.27247e-08
zn                                     1.84943
xu1.net_0_1                        2.27247e-08
xu1.net_0_2                        2.27247e-08
xu1.net_0_3                        2.27247e-08
vfix_a2#branch                               0
vin#branch                                   0
vdd#branch                        -2.13427e-11

 Reference value :  2.89175e-08
 Reference value :  7.35707e-08
 Reference value :  1.16934e-07
 Reference value :  1.59384e-07
 Reference value :  2.01071e-07
 Reference value :  2.46976e-07
 Reference value :  2.89379e-07
 Reference value :  3.34349e-07
No. of Data Rows : 68034

  Measurements for Transient Analysis

tphl                =  2.28080e-09 targ=  3.01549e-08 trig=  2.78741e-08
tplh                =  3.45778e-09 targ=  1.09080e-07 trig=  1.05622e-07
i_vdd_avg           =  -1.74402e-06 from=  1.00000e-08 to=  3.30004e-07
power_avg_uw        =  3.22545e+00


Total analysis time (seconds) = 2.28179

Total elapsed time (seconds) = 2.364 

Total DRAM available = 16384.000 MB.
DRAM currently available =  136.891 MB.
Maximum ngspice program size =   16.734 MB.
Current ngspice program size =   16.734 MB.

