
Note: No compatibility mode selected!


Circuit: GF180MCU library cell xor2_1 A1_to_Z__A2=0

Doing analysis at TEMP = -2.935957 and TNOM = 27.000000

Using SPARSE 1.3 as Direct Linear Solver

Initial Transient Solution
--------------------------

Node                                   Voltage
----                                   -------
vdd                                     1.8151
a1                                           0
a2                                           0
xu1.i                                   1.8151
z                                  3.45033e-08
xu1.net_0                          2.83514e-10
xu1.net_2                               1.8151
xu1.net_1                             0.802362
vfix_a2#branch                               0
vin#branch                                   0
vdd#branch                        -1.03971e-11

 Reference value :  4.69491e-08
 Reference value :  1.15501e-07
 Reference value :  1.79666e-07
 Reference value :  2.49899e-07
 Reference value :  3.13296e-07
No. of Data Rows : 68030

  Measurements for Transient Analysis

tplh                =  7.68998e-09 targ=  3.23908e-08 trig=  2.47008e-08
tphl                =  2.70616e-09 targ=  9.88086e-08 trig=  9.61024e-08
i_vdd_avg           =  -1.32190e-06 from=  1.00000e-08 to=  3.30001e-07
power_avg_uw        =  2.39939e+00


Total analysis time (seconds) = 1.48657

Total elapsed time (seconds) = 1.571 

Total DRAM available = 16384.000 MB.
DRAM currently available =  136.891 MB.
Maximum ngspice program size =   17.969 MB.
Current ngspice program size =   17.969 MB.

