
Note: No compatibility mode selected!


Circuit: GF180MCU library cell aoi21_1 A1_to_ZN__A2=1,B=0

Doing analysis at TEMP = 10.088058 and TNOM = 27.000000

Using SPARSE 1.3 as Direct Linear Solver

Initial Transient Solution
--------------------------

Node                                   Voltage
----                                   -------
vdd                                    1.74109
a1                                           0
a2                                     1.74109
b                                            0
xu1.net_0                          4.92257e-11
zn                                     1.74109
xu1.net_1                              1.74109
vfix_b#branch                                0
vfix_a2#branch                               0
vin#branch                                   0
vdd#branch                        -3.52268e-12

 Reference value :  6.46767e-08
 Reference value :  1.61281e-07
 Reference value :  2.59482e-07
No. of Data Rows : 68032

  Measurements for Transient Analysis

tphl                =  5.84733e-09 targ=  3.43819e-08 trig=  2.85346e-08
tplh                =  1.32336e-08 targ=  1.20837e-07 trig=  1.07604e-07
i_vdd_avg           =  -1.58772e-06 from=  1.00000e-08 to=  3.30001e-07
power_avg_uw        =  2.76437e+00


Total analysis time (seconds) = 1.22024

Total elapsed time (seconds) = 1.308 

Total DRAM available = 16384.000 MB.
DRAM currently available =  146.172 MB.
Maximum ngspice program size =   17.812 MB.
Current ngspice program size =   17.812 MB.

