
Note: No compatibility mode selected!


Circuit: GF180MCU library cell oai21_1 A1_to_ZN__A2=0,B=1

Doing analysis at TEMP = 66.975312 and TNOM = 27.000000

Using SPARSE 1.3 as Direct Linear Solver

Initial Transient Solution
--------------------------

Node                                   Voltage
----                                   -------
vdd                                    1.89986
a1                                           0
a2                                           0
b                                      1.89986
zn                                     1.89986
xu1.net_0                          8.71773e-09
xu1.net_1                              1.89986
vfix_b#branch                                0
vfix_a2#branch                               0
vin#branch                                   0
vdd#branch                        -5.29294e-12

 Reference value :  6.93765e-08
 Reference value :  1.71781e-07
 Reference value :  2.76931e-07
No. of Data Rows : 68032

  Measurements for Transient Analysis

tphl                =  4.01573e-09 targ=  2.83277e-08 trig=  2.43120e-08
tplh                =  1.04544e-08 targ=  1.05390e-07 trig=  9.49360e-08
i_vdd_avg           =  -1.87693e-06 from=  1.00000e-08 to=  3.30001e-07
power_avg_uw        =  3.56591e+00


Total analysis time (seconds) = 0.889593

Total elapsed time (seconds) = 0.969 

Total DRAM available = 16384.000 MB.
DRAM currently available =  114.922 MB.
Maximum ngspice program size =   17.078 MB.
Current ngspice program size =   17.078 MB.

