
Note: No compatibility mode selected!


Circuit: GF180MCU library cell xor2_1 A1_to_Z__A2=0

Doing analysis at TEMP = -19.994855 and TNOM = 27.000000

Using SPARSE 1.3 as Direct Linear Solver

Initial Transient Solution
--------------------------

Node                                   Voltage
----                                   -------
vdd                                    1.73978
a1                                           0
a2                                           0
xu1.i                                  1.73978
z                                  3.24892e-08
xu1.net_0                          4.15306e-11
xu1.net_2                              1.73978
xu1.net_1                             0.814512
vfix_a2#branch                               0
vin#branch                                   0
vdd#branch                        -9.79533e-12

 Reference value :  4.74310e-08
 Reference value :  1.12475e-07
 Reference value :  1.79365e-07
 Reference value :  2.48451e-07
 Reference value :  3.17045e-07
No. of Data Rows : 68034

  Measurements for Transient Analysis

tplh                =  2.21492e-09 targ=  3.06217e-08 trig=  2.84068e-08
tphl                =  3.12502e-09 targ=  1.10345e-07 trig=  1.07220e-07
i_vdd_avg           =  -2.81966e-07 from=  1.00000e-08 to=  3.30005e-07
power_avg_uw        =  4.90561e-01


Total analysis time (seconds) = 1.44272

Total elapsed time (seconds) = 1.535 

Total DRAM available = 16384.000 MB.
DRAM currently available =  128.125 MB.
Maximum ngspice program size =   18.484 MB.
Current ngspice program size =   18.484 MB.

