
Note: No compatibility mode selected!


Circuit: GF180MCU library cell oai21_1 A1_to_ZN__A2=0,B=1

Doing analysis at TEMP = 28.084576 and TNOM = 27.000000

Using SPARSE 1.3 as Direct Linear Solver

Initial Transient Solution
--------------------------

Node                                   Voltage
----                                   -------
vdd                                    1.97353
a1                                           0
a2                                           0
b                                      1.97353
zn                                     1.97353
xu1.net_0                          4.66831e-10
xu1.net_1                              1.97353
vfix_b#branch                                0
vfix_a2#branch                               0
vin#branch                                   0
vdd#branch                         -4.0591e-12

 Reference value :  6.72263e-08
 Reference value :  1.71070e-07
 Reference value :  2.71880e-07
No. of Data Rows : 68032

  Measurements for Transient Analysis

tphl                =  2.89943e-09 targ=  2.83538e-08 trig=  2.54544e-08
tplh                =  6.78006e-09 targ=  1.05143e-07 trig=  9.83632e-08
i_vdd_avg           =  -1.31126e-06 from=  1.00000e-08 to=  3.30000e-07
power_avg_uw        =  2.58782e+00


Total analysis time (seconds) = 0.895237

Total elapsed time (seconds) = 0.980 

Total DRAM available = 16384.000 MB.
DRAM currently available =  107.641 MB.
Maximum ngspice program size =   16.609 MB.
Current ngspice program size =   16.609 MB.

