
Note: No compatibility mode selected!


Circuit: GF180MCU library cell xor2_4 A1_to_Z__A2=0

Doing analysis at TEMP = 38.574622 and TNOM = 27.000000

Using SPARSE 1.3 as Direct Linear Solver

Initial Transient Solution
--------------------------

Node                                   Voltage
----                                   -------
vdd                                    1.82103
a1                                           0
a2                                           0
xu1.net_2                            0.0315373
xu1.i                                  1.82103
xu1.net_0                          1.13576e-09
xu1.z_neg                              1.82103
z                                  1.11124e-08
xu1.net_1                              1.82103
vfix_a2#branch                               0
vin#branch                                   0
vdd#branch                        -1.35406e-11

 Reference value :  2.58475e-08
 Reference value :  6.56034e-08
 Reference value :  1.07428e-07
 Reference value :  1.52084e-07
 Reference value :  2.00053e-07
 Reference value :  2.56803e-07
 Reference value :  3.08324e-07
No. of Data Rows : 68032

  Measurements for Transient Analysis

tplh                =  3.04258e-09 targ=  3.08105e-08 trig=  2.77679e-08
tphl                =  4.06643e-09 targ=  1.09370e-07 trig=  1.05304e-07
i_vdd_avg           =  -2.17359e-06 from=  1.00000e-08 to=  3.30004e-07
power_avg_uw        =  3.95817e+00


Total analysis time (seconds) = 1.87187

Total elapsed time (seconds) = 1.947 

Total DRAM available = 16384.000 MB.
DRAM currently available =  100.453 MB.
Maximum ngspice program size =   18.969 MB.
Current ngspice program size =   18.969 MB.

