
Note: No compatibility mode selected!


Circuit: GF180MCU library cell inv_1 I_to_ZN

Doing analysis at TEMP = -19.890398 and TNOM = 27.000000

Using SPARSE 1.3 as Direct Linear Solver

Initial Transient Solution
--------------------------

Node                                   Voltage
----                                   -------
vdd                                     1.6525
i                                            0
zn                                      1.6525
vin#branch                                   0
vdd#branch                        -1.66287e-12

 Reference value :  1.68062e-07
No. of Data Rows : 68030

  Measurements for Transient Analysis

tphl                =  3.77777e-09 targ=  3.28315e-08 trig=  2.90537e-08
tplh                =  6.43146e-09 targ=  1.15593e-07 trig=  1.09161e-07
i_vdd_avg           =  -8.38579e-07 from=  1.00000e-08 to=  3.30002e-07
power_avg_uw        =  1.38575e+00


Total analysis time (seconds) = 0.399282

Total elapsed time (seconds) = 0.464 

Total DRAM available = 16384.000 MB.
DRAM currently available =  219.938 MB.
Maximum ngspice program size =   15.203 MB.
Current ngspice program size =   15.203 MB.

