
Note: No compatibility mode selected!


Circuit: GF180MCU library cell mux2_1 I0_to_Z__I1=0,S=0

Doing analysis at TEMP = 35.812352 and TNOM = 27.000000

Using SPARSE 1.3 as Direct Linear Solver

Initial Transient Solution
--------------------------

Node                                   Voltage
----                                   -------
vdd                                    1.69997
i0                                           0
i1                                           0
s                                            0
xu1.int04                              1.69997
z                                  1.12716e-08
xu1.net_1                            0.0288541
xu1.net_3                              1.21934
xu1.sel1_n                             1.69997
xu1.net_0                              1.69997
xu1.net_2                              1.69997
vfix_s#branch                                0
vfix_i1#branch                               0
vin#branch                                   0
vdd#branch                        -1.02228e-11

 Reference value :  3.83629e-08
 Reference value :  9.30979e-08
 Reference value :  1.47453e-07
 Reference value :  2.05863e-07
 Reference value :  2.66178e-07
 Reference value :  3.22028e-07
No. of Data Rows : 68032

  Measurements for Transient Analysis

tplh                =  1.95143e-09 targ=  2.94991e-08 trig=  2.75477e-08
tphl                =  3.11674e-09 targ=  1.07760e-07 trig=  1.04643e-07
i_vdd_avg           =  -3.04920e-07 from=  1.00000e-08 to=  3.30003e-07
power_avg_uw        =  5.18355e-01


Total analysis time (seconds) = 1.64649

Total elapsed time (seconds) = 1.766 

Total DRAM available = 16384.000 MB.
DRAM currently available =  107.641 MB.
Maximum ngspice program size =   17.094 MB.
Current ngspice program size =   17.094 MB.

