
Note: No compatibility mode selected!


Circuit: GF180MCU library cell nor2_4 A1_to_ZN__A2=0

Doing analysis at TEMP = 92.110623 and TNOM = 27.000000

Using SPARSE 1.3 as Direct Linear Solver

Initial Transient Solution
--------------------------

Node                                   Voltage
----                                   -------
vdd                                     1.8725
a1                                           0
a2                                           0
zn                                      1.8725
xu1.net_0_0                             1.8725
xu1.net_0_1                             1.8725
xu1.net_0_2                             1.8725
xu1.net_0_3                             1.8725
vfix_a2#branch                               0
vin#branch                                   0
vdd#branch                        -4.16138e-11

 Reference value :  2.84975e-08
 Reference value :  7.42339e-08
 Reference value :  1.17215e-07
 Reference value :  1.65665e-07
 Reference value :  2.15159e-07
 Reference value :  2.60754e-07
 Reference value :  3.04195e-07
No. of Data Rows : 68030

  Measurements for Transient Analysis

tphl                =  2.25711e-09 targ=  3.16178e-08 trig=  2.93607e-08
tplh                =  5.06287e-09 targ=  1.15145e-07 trig=  1.10082e-07
i_vdd_avg           =  -1.72537e-06 from=  1.00000e-08 to=  3.30000e-07
power_avg_uw        =  3.23076e+00


Total analysis time (seconds) = 2.10988

Total elapsed time (seconds) = 2.204 

Total DRAM available = 16384.000 MB.
DRAM currently available =   83.625 MB.
Maximum ngspice program size =   19.297 MB.
Current ngspice program size =   19.297 MB.

