
Note: No compatibility mode selected!


Circuit: GF180MCU library cell aoi21_4 A1_to_ZN__A2=1,B=0

Doing analysis at TEMP = 101.064850 and TNOM = 27.000000

Using SPARSE 1.3 as Direct Linear Solver

Initial Transient Solution
--------------------------

Node                                   Voltage
----                                   -------
vdd                                    1.86781
a1                                           0
a2                                     1.86781
b                                            0
xu1.net_0_0                        3.45522e-08
zn                                     1.86781
xu1.net_0_1                        3.45522e-08
xu1.net_0_2                        3.45522e-08
xu1.net_0_3                        3.45522e-08
xu1.net_1                              1.86781
vfix_b#branch                                0
vfix_a2#branch                               0
vin#branch                                   0
vdd#branch                        -5.98615e-11

 Reference value :  2.44425e-08
 Reference value :  5.56660e-08
 Reference value :  8.88360e-08
 Reference value :  1.22280e-07
 Reference value :  1.53565e-07
 Reference value :  1.81895e-07
 Reference value :  2.10816e-07
 Reference value :  2.44876e-07
 Reference value :  2.75185e-07
 Reference value :  3.06355e-07
 Reference value :  3.37080e-07
No. of Data Rows : 68034

  Measurements for Transient Analysis

tphl                =  2.29662e-10 targ=  2.44589e-08 trig=  2.42293e-08
tplh                =  4.21609e-10 targ=  9.51094e-08 trig=  9.46878e-08
i_vdd_avg           =  -2.02942e-07 from=  1.00000e-08 to=  3.30005e-07
power_avg_uw        =  3.79058e-01


Total analysis time (seconds) = 2.96469

Total elapsed time (seconds) = 3.027 

Total DRAM available = 16384.000 MB.
DRAM currently available =  151.359 MB.
Maximum ngspice program size =   14.750 MB.
Current ngspice program size =   14.750 MB.

