
Note: No compatibility mode selected!


Circuit: GF180MCU library cell aoi21_1 A1_to_ZN__A2=1,B=0

Doing analysis at TEMP = 57.388042 and TNOM = 27.000000

Using SPARSE 1.3 as Direct Linear Solver

Initial Transient Solution
--------------------------

Node                                   Voltage
----                                   -------
vdd                                    1.85599
a1                                           0
a2                                     1.85599
b                                            0
xu1.net_0                          2.28524e-09
zn                                     1.85599
xu1.net_1                              1.85599
vfix_b#branch                                0
vfix_a2#branch                               0
vin#branch                                   0
vdd#branch                        -4.58656e-12

 Reference value :  6.75678e-08
 Reference value :  1.65873e-07
 Reference value :  2.71033e-07
No. of Data Rows : 68032

  Measurements for Transient Analysis

tphl                =  4.50659e-09 targ=  3.20643e-08 trig=  2.75577e-08
tplh                =  9.93928e-09 targ=  1.14612e-07 trig=  1.04673e-07
i_vdd_avg           =  -1.39977e-06 from=  1.00000e-08 to=  3.30003e-07
power_avg_uw        =  2.59795e+00


Total analysis time (seconds) = 0.979062

Total elapsed time (seconds) = 1.069 

Total DRAM available = 16384.000 MB.
DRAM currently available =  136.891 MB.
Maximum ngspice program size =   18.766 MB.
Current ngspice program size =   18.766 MB.

