
Note: No compatibility mode selected!


Circuit: GF180MCU library cell inv_1 I_to_ZN

Doing analysis at TEMP = 23.481232 and TNOM = 27.000000

Using SPARSE 1.3 as Direct Linear Solver

Initial Transient Solution
--------------------------

Node                                   Voltage
----                                   -------
vdd                                    1.72551
i                                            0
zn                                     1.72551
vin#branch                                   0
vdd#branch                        -1.76359e-12

 Reference value :  1.54594e-07
No. of Data Rows : 68032

  Measurements for Transient Analysis

tphl                =  2.62648e-09 targ=  3.14043e-08 trig=  2.87778e-08
tplh                =  4.70033e-09 targ=  1.13034e-07 trig=  1.08333e-07
i_vdd_avg           =  -5.30104e-07 from=  1.00000e-08 to=  3.30004e-07
power_avg_uw        =  9.14698e-01


Total analysis time (seconds) = 0.498316

Total elapsed time (seconds) = 0.572 

Total DRAM available = 16384.000 MB.
DRAM currently available =  146.172 MB.
Maximum ngspice program size =   17.016 MB.
Current ngspice program size =   17.016 MB.

