
Note: No compatibility mode selected!


Circuit: GF180MCU library cell inv_4 I_to_ZN

Doing analysis at TEMP = 30.957846 and TNOM = 27.000000

Using SPARSE 1.3 as Direct Linear Solver

Initial Transient Solution
--------------------------

Node                                   Voltage
----                                   -------
vdd                                    1.85877
i                                            0
zn                                     1.85877
vin#branch                                   0
vdd#branch                        -7.69571e-12

 Reference value :  5.83108e-08
 Reference value :  1.46809e-07
 Reference value :  2.29101e-07
 Reference value :  3.16259e-07
No. of Data Rows : 68034

  Measurements for Transient Analysis

tphl                =  2.37583e-09 targ=  3.11150e-08 trig=  2.87391e-08
tplh                =  4.38352e-09 targ=  1.12601e-07 trig=  1.08217e-07
i_vdd_avg           =  -2.47186e-06 from=  1.00000e-08 to=  3.30004e-07
power_avg_uw        =  4.59463e+00


Total analysis time (seconds) = 1.09255

Total elapsed time (seconds) = 1.179 

Total DRAM available = 16384.000 MB.
DRAM currently available =  185.875 MB.
Maximum ngspice program size =   16.844 MB.
Current ngspice program size =   16.844 MB.

