
Note: No compatibility mode selected!


Circuit: GF180MCU library cell inv_1 I_to_ZN

Doing analysis at TEMP = 59.641024 and TNOM = 27.000000

Using SPARSE 1.3 as Direct Linear Solver

Initial Transient Solution
--------------------------

Node                                   Voltage
----                                   -------
vdd                                    1.95024
i                                            0
zn                                     1.95024
vin#branch                                   0
vdd#branch                        -2.42661e-12

 Reference value :  1.68447e-07
No. of Data Rows : 68030

  Measurements for Transient Analysis

tphl                =  8.19328e-10 targ=  2.85555e-08 trig=  2.77361e-08
tplh                =  2.11131e-09 targ=  1.07320e-07 trig=  1.05208e-07
i_vdd_avg           =  -2.13208e-07 from=  1.00000e-08 to=  3.30002e-07
power_avg_uw        =  4.15807e-01


Total analysis time (seconds) = 0.464053

Total elapsed time (seconds) = 0.523 

Total DRAM available = 16384.000 MB.
DRAM currently available =  128.125 MB.
Maximum ngspice program size =   15.594 MB.
Current ngspice program size =   15.594 MB.

