
Note: No compatibility mode selected!


Circuit: GF180MCU library cell aoi21_1 A1_to_ZN__A2=1,B=0

Doing analysis at TEMP = 100.820460 and TNOM = 27.000000

Using SPARSE 1.3 as Direct Linear Solver

Initial Transient Solution
--------------------------

Node                                   Voltage
----                                   -------
vdd                                    1.92731
a1                                           0
a2                                     1.92731
b                                            0
xu1.net_0                          3.36809e-08
zn                                     1.92731
xu1.net_1                              1.92731
vfix_b#branch                                0
vfix_a2#branch                               0
vin#branch                                   0
vdd#branch                        -1.52245e-11

 Reference value :  6.71253e-08
 Reference value :  1.73363e-07
 Reference value :  2.83778e-07
No. of Data Rows : 68034

  Measurements for Transient Analysis

tphl                =  6.00819e-09 targ=  3.28771e-08 trig=  2.68689e-08
tplh                =  1.40851e-08 targ=  1.16692e-07 trig=  1.02607e-07
i_vdd_avg           =  -2.32936e-06 from=  1.00000e-08 to=  3.30003e-07
power_avg_uw        =  4.48939e+00


Total analysis time (seconds) = 0.905855

Total elapsed time (seconds) = 0.989 

Total DRAM available = 16384.000 MB.
DRAM currently available =  122.062 MB.
Maximum ngspice program size =   17.297 MB.
Current ngspice program size =   17.297 MB.

