
Note: No compatibility mode selected!


Circuit: GF180MCU library cell nand3_4 A1_to_ZN__A2=1,A3=1

Doing analysis at TEMP = -18.893236 and TNOM = 27.000000

Using SPARSE 1.3 as Direct Linear Solver

Initial Transient Solution
--------------------------

Node                                   Voltage
----                                   -------
vdd                                    1.77062
a1                                           0
a2                                     1.77062
a3                                     1.77062
xu1.net_1_3                        2.27002e-12
xu1.net_0                          4.54008e-12
xu1.net_1_2                        2.27002e-12
xu1.net_1_1                        2.27002e-12
xu1.net_1_0                        2.27002e-12
xu1.net_0_0                        4.54004e-12
zn                                     1.77062
vfix_a3#branch                               0
vfix_a2#branch                               0
vin#branch                                   0
vdd#branch                        -7.12429e-12

 Reference value :  2.03864e-08
 Reference value :  4.90585e-08
 Reference value :  8.06535e-08
 Reference value :  1.11795e-07
 Reference value :  1.42185e-07
 Reference value :  1.72235e-07
 Reference value :  2.05924e-07
 Reference value :  2.44609e-07
 Reference value :  2.89155e-07
 Reference value :  3.29835e-07
No. of Data Rows : 68032

  Measurements for Transient Analysis

tphl                =  1.29485e-09 targ=  2.92229e-08 trig=  2.79280e-08
tplh                =  2.40391e-09 targ=  1.08188e-07 trig=  1.05784e-07
i_vdd_avg           =  -4.43314e-07 from=  1.00000e-08 to=  3.30005e-07
power_avg_uw        =  7.84942e-01


Total analysis time (seconds) = 2.65196

Total elapsed time (seconds) = 2.749 

Total DRAM available = 16384.000 MB.
DRAM currently available =   91.703 MB.
Maximum ngspice program size =   19.234 MB.
Current ngspice program size =   19.234 MB.

