
Note: No compatibility mode selected!


Circuit: GF180MCU library cell aoi21_1 A1_to_ZN__A2=1,B=0

Doing analysis at TEMP = 84.927665 and TNOM = 27.000000

Using SPARSE 1.3 as Direct Linear Solver

Initial Transient Solution
--------------------------

Node                                   Voltage
----                                   -------
vdd                                    1.91364
a1                                           0
a2                                     1.91364
b                                            0
xu1.net_0                            1.352e-08
zn                                     1.91363
xu1.net_1                              1.91363
vfix_b#branch                                0
vfix_a2#branch                               0
vin#branch                                   0
vdd#branch                        -8.60833e-12

 Reference value :  7.61529e-08
 Reference value :  1.82568e-07
 Reference value :  2.90418e-07
No. of Data Rows : 68032

  Measurements for Transient Analysis

tphl                =  2.13561e-09 targ=  2.61633e-08 trig=  2.40277e-08
tplh                =  5.59160e-09 targ=  9.96746e-08 trig=  9.40830e-08
i_vdd_avg           =  -1.00930e-06 from=  1.00000e-08 to=  3.30003e-07
power_avg_uw        =  1.93144e+00


Total analysis time (seconds) = 0.848942

Total elapsed time (seconds) = 0.927 

Total DRAM available = 16384.000 MB.
DRAM currently available =  151.359 MB.
Maximum ngspice program size =   18.094 MB.
Current ngspice program size =   18.094 MB.

