
Note: No compatibility mode selected!


Circuit: XOR2 seed characterization sample 4124008

Doing analysis at TEMP = 61.485200 and TNOM = 27.000000

Using SPARSE 1.3 as Direct Linear Solver

Initial Transient Solution
--------------------------

Node                                   Voltage
----                                   -------
vdd                                    1.92911
in                                           0
b                                      1.92911
abar                                   1.92911
bbar                               8.12619e-09
out                                    1.92911
vb#branch                                    0
vin#branch                         4.23031e-12
vdd#branch                        -1.59684e-11

 Reference value :  2.63349e-08
 Reference value :  6.14020e-08
 Reference value :  9.84300e-08
No. of Data Rows : 60041

  Measurements for Transient Analysis

tphl                =  7.37414e-10 targ=  2.93789e-09 trig=  2.20048e-09
tplh                =  7.85271e-10 targ=  2.33867e-08 trig=  2.26014e-08
i_vdd_avg           =  -3.57703e-06 from=  5.00000e-09 to=  1.10001e-07
power_avg_uw        =  6.90049e+00


Total analysis time (seconds) = 0.800068

Total elapsed time (seconds) = 0.872 

Total DRAM available = 16384.000 MB.
DRAM currently available =  128.016 MB.
Maximum ngspice program size =   12.594 MB.
Current ngspice program size =   11.906 MB.

