
Note: No compatibility mode selected!


Circuit: INV seed characterization sample 4124017

Doing analysis at TEMP = 30.875500 and TNOM = 27.000000

Using SPARSE 1.3 as Direct Linear Solver

Initial Transient Solution
--------------------------

Node                                   Voltage
----                                   -------
vdd                                    1.68987
in                                           0
out                                    1.68987
vin#branch                                   0
vdd#branch                        -2.68929e-12

 Reference value :  7.41460e-08
No. of Data Rows : 60047

  Measurements for Transient Analysis

tphl                =  1.94964e-10 targ=  2.30571e-09 trig=  2.11075e-09
tplh                =  2.14473e-10 targ=  2.25467e-08 trig=  2.23322e-08
i_vdd_avg           =  -4.19577e-06 from=  5.00000e-09 to=  1.10002e-07
power_avg_uw        =  7.09031e+00


Total analysis time (seconds) = 0.289871

Total elapsed time (seconds) = 0.359 

Total DRAM available = 16384.000 MB.
DRAM currently available =  131.875 MB.
Maximum ngspice program size =   12.562 MB.
Current ngspice program size =   11.688 MB.

