
Note: No compatibility mode selected!


Circuit: NOR2 seed characterization sample 4124011

Doing analysis at TEMP = 92.034900 and TNOM = 27.000000

Using SPARSE 1.3 as Direct Linear Solver

Initial Transient Solution
--------------------------

Node                                   Voltage
----                                   -------
vdd                                     1.7719
in                                           0
out                                     1.7719
pmid                                    1.7719
vin#branch                                   0
vdd#branch                        -1.24724e-10

 Reference value :  4.75519e-08
 Reference value :  1.08762e-07
No. of Data Rows : 60047

  Measurements for Transient Analysis

tphl                =  4.22040e-11 targ=  2.05242e-09 trig=  2.01021e-09
tplh                =  1.39939e-10 targ=  2.21706e-08 trig=  2.20306e-08
i_vdd_avg           =  -2.41979e-06 from=  5.00000e-09 to=  1.10002e-07
power_avg_uw        =  4.28763e+00


Total analysis time (seconds) = 0.47374

Total elapsed time (seconds) = 0.541 

Total DRAM available = 16384.000 MB.
DRAM currently available =  130.703 MB.
Maximum ngspice program size =   12.562 MB.
Current ngspice program size =   11.625 MB.

