
Note: No compatibility mode selected!


Circuit: NAND2 seed characterization sample 4124014

Doing analysis at TEMP = 77.586100 and TNOM = 27.000000

Using SPARSE 1.3 as Direct Linear Solver

Initial Transient Solution
--------------------------

Node                                   Voltage
----                                   -------
vdd                                    1.72749
in                                           0
out                                    1.72749
nmid                                 0.0502717
vin#branch                                   0
vdd#branch                        -3.99296e-12

 Reference value :  4.75585e-08
 Reference value :  1.09326e-07
No. of Data Rows : 60047

  Measurements for Transient Analysis

tphl                =  2.50477e-10 targ=  2.45221e-09 trig=  2.20174e-09
tplh                =  1.45857e-10 targ=  2.27511e-08 trig=  2.26052e-08
i_vdd_avg           =  -1.22814e-06 from=  5.00000e-09 to=  1.10002e-07
power_avg_uw        =  2.12159e+00


Total analysis time (seconds) = 0.468573

Total elapsed time (seconds) = 0.537 

Total DRAM available = 16384.000 MB.
DRAM currently available =  133.062 MB.
Maximum ngspice program size =   12.562 MB.
Current ngspice program size =   11.750 MB.

