
Note: No compatibility mode selected!


Circuit: NAND2 seed characterization sample 4124038

Doing analysis at TEMP = -11.712500 and TNOM = 27.000000

Using SPARSE 1.3 as Direct Linear Solver

Initial Transient Solution
--------------------------

Node                                   Voltage
----                                   -------
vdd                                    1.82006
in                                           0
out                                    1.82006
nmid                                0.00356898
vin#branch                                   0
vdd#branch                         -1.8403e-12

 Reference value :  4.74489e-08
 Reference value :  1.08913e-07
No. of Data Rows : 60044

  Measurements for Transient Analysis

tphl                =  4.05452e-10 targ=  2.64339e-09 trig=  2.23794e-09
tplh                =  2.07759e-10 targ=  2.29216e-08 trig=  2.27138e-08
i_vdd_avg           =  -3.51086e-06 from=  5.00000e-09 to=  1.10001e-07
power_avg_uw        =  6.38998e+00


Total analysis time (seconds) = 0.469552

Total elapsed time (seconds) = 0.539 

Total DRAM available = 16384.000 MB.
DRAM currently available =   95.562 MB.
Maximum ngspice program size =   12.562 MB.
Current ngspice program size =   11.656 MB.

