
Note: No compatibility mode selected!


Circuit: NAND2 seed characterization sample 4124034

Doing analysis at TEMP = 95.985400 and TNOM = 27.000000

Using SPARSE 1.3 as Direct Linear Solver

Initial Transient Solution
--------------------------

Node                                   Voltage
----                                   -------
vdd                                    1.80673
in                                           0
out                                    1.80673
nmid                                 0.0535327
vin#branch                                   0
vdd#branch                        -1.20533e-11

 Reference value :  4.65104e-08
 Reference value :  1.07126e-07
No. of Data Rows : 60047

  Measurements for Transient Analysis

tphl                =  1.85265e-10 targ=  2.27296e-09 trig=  2.08770e-09
tplh                =  1.13407e-10 targ=  2.23765e-08 trig=  2.22631e-08
i_vdd_avg           =  -1.81042e-06 from=  5.00000e-09 to=  1.10002e-07
power_avg_uw        =  3.27094e+00


Total analysis time (seconds) = 0.476896

Total elapsed time (seconds) = 0.547 

Total DRAM available = 16384.000 MB.
DRAM currently available =   89.172 MB.
Maximum ngspice program size =   12.562 MB.
Current ngspice program size =   11.906 MB.

