
Note: No compatibility mode selected!


Circuit: INV seed characterization sample 4124009

Doing analysis at TEMP = -19.258500 and TNOM = 27.000000

Using SPARSE 1.3 as Direct Linear Solver

Initial Transient Solution
--------------------------

Node                                   Voltage
----                                   -------
vdd                                    1.70557
in                                           0
out                                    1.70557
vin#branch                                   0
vdd#branch                        -1.72627e-12

 Reference value :  7.64337e-08
No. of Data Rows : 60047

  Measurements for Transient Analysis

tphl                =  1.37728e-10 targ=  2.38441e-09 trig=  2.24668e-09
tplh                =  2.16882e-10 targ=  2.29569e-08 trig=  2.27400e-08
i_vdd_avg           =  -1.53287e-06 from=  5.00000e-09 to=  1.10002e-07
power_avg_uw        =  2.61442e+00


Total analysis time (seconds) = 0.282931

Total elapsed time (seconds) = 0.351 

Total DRAM available = 16384.000 MB.
DRAM currently available =  130.703 MB.
Maximum ngspice program size =   12.562 MB.
Current ngspice program size =   11.844 MB.

