
Note: No compatibility mode selected!


Circuit: XOR2 seed characterization sample 4124024

Doing analysis at TEMP = -12.393600 and TNOM = 27.000000

Using SPARSE 1.3 as Direct Linear Solver

Initial Transient Solution
--------------------------

Node                                   Voltage
----                                   -------
vdd                                    1.66141
in                                           0
b                                      1.66141
abar                                   1.66141
bbar                               1.31449e-09
out                                    1.66141
vb#branch                                    0
vin#branch                         1.69134e-12
vdd#branch                        -1.00637e-11

 Reference value :  2.56460e-08
 Reference value :  6.02085e-08
 Reference value :  9.70705e-08
No. of Data Rows : 60047

  Measurements for Transient Analysis

tphl                =  4.49396e-10 targ=  2.69214e-09 trig=  2.24275e-09
tplh                =  5.43249e-10 targ=  2.32715e-08 trig=  2.27282e-08
i_vdd_avg           =  -5.94721e-06 from=  5.00000e-09 to=  1.10002e-07
power_avg_uw        =  9.88076e+00


Total analysis time (seconds) = 0.808713

Total elapsed time (seconds) = 0.884 

Total DRAM available = 16384.000 MB.
DRAM currently available =  117.516 MB.
Maximum ngspice program size =   13.297 MB.
Current ngspice program size =   13.297 MB.

