
Note: No compatibility mode selected!


Circuit: NOR2 seed characterization sample 4124023

Doing analysis at TEMP = 89.792800 and TNOM = 27.000000

Using SPARSE 1.3 as Direct Linear Solver

Initial Transient Solution
--------------------------

Node                                   Voltage
----                                   -------
vdd                                    1.93267
in                                           0
out                                    1.93267
pmid                                   1.93267
vin#branch                                   0
vdd#branch                        -1.17695e-10

 Reference value :  4.54214e-08
 Reference value :  1.05206e-07
No. of Data Rows : 60044

  Measurements for Transient Analysis

tphl                =  1.10181e-10 targ=  2.35340e-09 trig=  2.24322e-09
tplh                =  3.32926e-10 targ=  2.30626e-08 trig=  2.27297e-08
i_vdd_avg           =  -3.28131e-06 from=  5.00000e-09 to=  1.10002e-07
power_avg_uw        =  6.34170e+00


Total analysis time (seconds) = 0.484948

Total elapsed time (seconds) = 0.555 

Total DRAM available = 16384.000 MB.
DRAM currently available =  120.156 MB.
Maximum ngspice program size =   12.562 MB.
Current ngspice program size =   11.625 MB.

