
Note: No compatibility mode selected!


Circuit: NAND2 seed characterization sample 4124042

Doing analysis at TEMP = 45.669800 and TNOM = 27.000000

Using SPARSE 1.3 as Direct Linear Solver

Initial Transient Solution
--------------------------

Node                                   Voltage
----                                   -------
vdd                                    1.78446
in                                           0
out                                    1.78446
nmid                                 0.0469781
vin#branch                                   0
vdd#branch                        -2.48958e-12

 Reference value :  4.78103e-08
 Reference value :  1.10298e-07
No. of Data Rows : 60047

  Measurements for Transient Analysis

tphl                =  3.02325e-10 targ=  2.32498e-09 trig=  2.02265e-09
tplh                =  1.33974e-10 targ=  2.22019e-08 trig=  2.20680e-08
i_vdd_avg           =  -5.77531e-06 from=  5.00000e-09 to=  1.10002e-07
power_avg_uw        =  1.03058e+01


Total analysis time (seconds) = 0.463111

Total elapsed time (seconds) = 0.533 

Total DRAM available = 16384.000 MB.
DRAM currently available =  103.438 MB.
Maximum ngspice program size =   12.562 MB.
Current ngspice program size =   11.594 MB.

