
Note: No compatibility mode selected!


Circuit: NOR2 seed characterization sample 4124043

Doing analysis at TEMP = 68.077000 and TNOM = 27.000000

Using SPARSE 1.3 as Direct Linear Solver

Initial Transient Solution
--------------------------

Node                                   Voltage
----                                   -------
vdd                                    1.82955
in                                           0
out                                    1.82955
pmid                                   1.82955
vin#branch                                   0
vdd#branch                        -1.08522e-11

 Reference value :  4.70313e-08
 Reference value :  1.08230e-07
No. of Data Rows : 60044

  Measurements for Transient Analysis

tphl                =  2.35352e-10 targ=  2.36150e-09 trig=  2.12614e-09
tplh                =  9.26667e-10 targ=  2.33051e-08 trig=  2.23784e-08
i_vdd_avg           =  -3.87312e-06 from=  5.00000e-09 to=  1.10002e-07
power_avg_uw        =  7.08607e+00


Total analysis time (seconds) = 0.47356

Total elapsed time (seconds) = 0.542 

Total DRAM available = 16384.000 MB.
DRAM currently available =  103.438 MB.
Maximum ngspice program size =   12.562 MB.
Current ngspice program size =   11.625 MB.

