
Note: No compatibility mode selected!


Circuit: INV seed characterization sample 4124025

Doing analysis at TEMP = -3.927550 and TNOM = 27.000000

Using SPARSE 1.3 as Direct Linear Solver

Initial Transient Solution
--------------------------

Node                                   Voltage
----                                   -------
vdd                                    1.92205
in                                           0
out                                    1.92205
vin#branch                                   0
vdd#branch                        -2.01869e-12

 Reference value :  7.34197e-08
No. of Data Rows : 60044

  Measurements for Transient Analysis

tphl                =  1.70005e-10 targ=  2.34417e-09 trig=  2.17417e-09
tplh                =  2.33669e-10 targ=  2.27562e-08 trig=  2.25225e-08
i_vdd_avg           =  -5.49423e-06 from=  5.00000e-09 to=  1.10002e-07
power_avg_uw        =  1.05602e+01


Total analysis time (seconds) = 0.293248

Total elapsed time (seconds) = 0.363 

Total DRAM available = 16384.000 MB.
DRAM currently available =  122.938 MB.
Maximum ngspice program size =   12.703 MB.
Current ngspice program size =   12.703 MB.

