
Note: No compatibility mode selected!


Circuit: XOR2 seed characterization sample 4124020

Doing analysis at TEMP = 11.987600 and TNOM = 27.000000

Using SPARSE 1.3 as Direct Linear Solver

Initial Transient Solution
--------------------------

Node                                   Voltage
----                                   -------
vdd                                    1.95298
in                                           0
b                                      1.95298
abar                                   1.95298
bbar                               1.01115e-09
out                                    1.95298
vb#branch                                    0
vin#branch                         2.37131e-12
vdd#branch                         -1.2504e-11

 Reference value :  2.68762e-08
 Reference value :  6.17486e-08
 Reference value :  9.87666e-08
No. of Data Rows : 60044

  Measurements for Transient Analysis

tphl                =  2.85442e-10 targ=  2.43324e-09 trig=  2.14780e-09
tplh                =  2.86633e-10 targ=  2.27300e-08 trig=  2.24434e-08
i_vdd_avg           =  -8.00653e-06 from=  5.00000e-09 to=  1.10000e-07
power_avg_uw        =  1.56366e+01


Total analysis time (seconds) = 0.802788

Total elapsed time (seconds) = 0.872 

Total DRAM available = 16384.000 MB.
DRAM currently available =  129.906 MB.
Maximum ngspice program size =   12.578 MB.
Current ngspice program size =   12.094 MB.

