
Note: No compatibility mode selected!


Circuit: NOR2 seed characterization sample 4124007

Doing analysis at TEMP = -9.472490 and TNOM = 27.000000

Using SPARSE 1.3 as Direct Linear Solver

Initial Transient Solution
--------------------------

Node                                   Voltage
----                                   -------
vdd                                    1.65115
in                                           0
out                                    1.65115
pmid                                   1.65115
vin#branch                                   0
vdd#branch                        -3.34774e-12

 Reference value :  4.67689e-08
 Reference value :  1.07853e-07
No. of Data Rows : 60044

  Measurements for Transient Analysis

tphl                =  1.62778e-10 targ=  2.36971e-09 trig=  2.20693e-09
tplh                =  4.02812e-10 targ=  2.30236e-08 trig=  2.26208e-08
i_vdd_avg           =  -2.15807e-06 from=  5.00000e-09 to=  1.10001e-07
power_avg_uw        =  3.56329e+00


Total analysis time (seconds) = 0.474275

Total elapsed time (seconds) = 0.543 

Total DRAM available = 16384.000 MB.
DRAM currently available =  134.984 MB.
Maximum ngspice program size =   12.562 MB.
Current ngspice program size =   11.844 MB.

