
Note: No compatibility mode selected!


Circuit: INV seed characterization sample 4124013

Doing analysis at TEMP = 10.183800 and TNOM = 27.000000

Using SPARSE 1.3 as Direct Linear Solver

Initial Transient Solution
--------------------------

Node                                   Voltage
----                                   -------
vdd                                    1.71159
in                                           0
out                                    1.71159
vin#branch                                   0
vdd#branch                        -1.75299e-12

 Reference value :  7.46960e-08
No. of Data Rows : 60047

  Measurements for Transient Analysis

tphl                =  7.38995e-10 targ=  2.77474e-09 trig=  2.03575e-09
tplh                =  1.08947e-09 targ=  2.31967e-08 trig=  2.21072e-08
i_vdd_avg           =  -3.40929e-06 from=  5.00000e-09 to=  1.10002e-07
power_avg_uw        =  5.83531e+00


Total analysis time (seconds) = 0.28775

Total elapsed time (seconds) = 0.357 

Total DRAM available = 16384.000 MB.
DRAM currently available =  133.062 MB.
Maximum ngspice program size =   12.562 MB.
Current ngspice program size =   12.031 MB.

