
Note: No compatibility mode selected!


Circuit: XOR2 seed characterization sample 4424016

Doing analysis at TEMP = -10.103700 and TNOM = 27.000000

Using SPARSE 1.3 as Direct Linear Solver

Initial Transient Solution
--------------------------

Node                                   Voltage
----                                   -------
vdd                                    1.68152
in                                           0
b                                      1.68152
abar                                   1.68152
bbar                               7.89658e-10
out                                    1.68152
vb#branch                                    0
vin#branch                         1.73729e-12
vdd#branch                        -1.02306e-11

 Reference value :  2.71034e-08
 Reference value :  6.25482e-08
 Reference value :  1.00250e-07
No. of Data Rows : 60047

  Measurements for Transient Analysis

tphl                =  2.44816e-10 targ=  2.44942e-09 trig=  2.20460e-09
tplh                =  2.93901e-10 targ=  2.29077e-08 trig=  2.26138e-08
i_vdd_avg           =  -4.17552e-06 from=  5.00000e-09 to=  1.10001e-07
power_avg_uw        =  7.02122e+00


Total analysis time (seconds) = 0.790284

Total elapsed time (seconds) = 0.860 

Total DRAM available = 16384.000 MB.
DRAM currently available =  229.891 MB.
Maximum ngspice program size =   12.578 MB.
Current ngspice program size =   11.594 MB.

