
Note: No compatibility mode selected!


Circuit: NAND2 seed characterization sample 4424006

Doing analysis at TEMP = -2.868440 and TNOM = 27.000000

Using SPARSE 1.3 as Direct Linear Solver

Initial Transient Solution
--------------------------

Node                                   Voltage
----                                   -------
vdd                                    1.87232
in                                           0
out                                    1.87232
nmid                                0.00599545
vin#branch                                   0
vdd#branch                        -1.89939e-12

 Reference value :  4.75442e-08
 Reference value :  1.09155e-07
No. of Data Rows : 60047

  Measurements for Transient Analysis

tphl                =  5.63896e-10 targ=  2.65651e-09 trig=  2.09261e-09
tplh                =  1.86688e-10 targ=  2.24645e-08 trig=  2.22778e-08
i_vdd_avg           =  -5.15519e-06 from=  5.00000e-09 to=  1.10001e-07
power_avg_uw        =  9.65217e+00


Total analysis time (seconds) = 0.467991

Total elapsed time (seconds) = 0.537 

Total DRAM available = 16384.000 MB.
DRAM currently available =  227.641 MB.
Maximum ngspice program size =   12.562 MB.
Current ngspice program size =   11.625 MB.

