
Note: No compatibility mode selected!


Circuit: NOR2 seed characterization sample 4424039

Doing analysis at TEMP = -14.187500 and TNOM = 27.000000

Using SPARSE 1.3 as Direct Linear Solver

Initial Transient Solution
--------------------------

Node                                   Voltage
----                                   -------
vdd                                    1.72362
in                                           0
out                                    1.72362
pmid                                   1.72362
vin#branch                                   0
vdd#branch                        -3.49455e-12

 Reference value :  4.60953e-08
 Reference value :  1.06164e-07
No. of Data Rows : 60044

  Measurements for Transient Analysis

tphl                =  1.17455e-10 targ=  2.25059e-09 trig=  2.13313e-09
tplh                =  4.73623e-10 targ=  2.28730e-08 trig=  2.23994e-08
i_vdd_avg           =  -2.97776e-06 from=  5.00000e-09 to=  1.10002e-07
power_avg_uw        =  5.13253e+00


Total analysis time (seconds) = 0.479712

Total elapsed time (seconds) = 0.551 

Total DRAM available = 16384.000 MB.
DRAM currently available =  208.375 MB.
Maximum ngspice program size =   12.562 MB.
Current ngspice program size =   11.906 MB.

