
Note: No compatibility mode selected!


Circuit: NOR2 seed characterization sample 4424007

Doing analysis at TEMP = -4.626380 and TNOM = 27.000000

Using SPARSE 1.3 as Direct Linear Solver

Initial Transient Solution
--------------------------

Node                                   Voltage
----                                   -------
vdd                                    1.70307
in                                           0
out                                    1.70307
pmid                                   1.70307
vin#branch                                   0
vdd#branch                        -3.46981e-12

 Reference value :  4.69898e-08
 Reference value :  1.07587e-07
No. of Data Rows : 60041

  Measurements for Transient Analysis

tphl                =  2.41091e-10 targ=  2.43851e-09 trig=  2.19742e-09
tplh                =  7.00129e-10 targ=  2.32924e-08 trig=  2.25923e-08
i_vdd_avg           =  -5.24325e-06 from=  5.00000e-09 to=  1.10001e-07
power_avg_uw        =  8.92963e+00


Total analysis time (seconds) = 0.476213

Total elapsed time (seconds) = 0.545 

Total DRAM available = 16384.000 MB.
DRAM currently available =  227.641 MB.
Maximum ngspice program size =   12.562 MB.
Current ngspice program size =   11.625 MB.

