
Note: No compatibility mode selected!


Circuit: NAND2 seed characterization sample 4424002

Doing analysis at TEMP = -15.366500 and TNOM = 27.000000

Using SPARSE 1.3 as Direct Linear Solver

Initial Transient Solution
--------------------------

Node                                   Voltage
----                                   -------
vdd                                    1.74086
in                                           0
out                                    1.74086
nmid                               0.000916164
vin#branch                                   0
vdd#branch                        -1.75351e-12

 Reference value :  4.48588e-08
 Reference value :  1.05107e-07
No. of Data Rows : 60044

  Measurements for Transient Analysis

tphl                =  2.27743e-10 targ=  2.37063e-09 trig=  2.14288e-09
tplh                =  1.60430e-10 targ=  2.25891e-08 trig=  2.24286e-08
i_vdd_avg           =  -4.73453e-07 from=  5.00000e-09 to=  1.10001e-07
power_avg_uw        =  8.24216e-01


Total analysis time (seconds) = 0.481037

Total elapsed time (seconds) = 0.554 

Total DRAM available = 16384.000 MB.
DRAM currently available =  191.828 MB.
Maximum ngspice program size =   12.562 MB.
Current ngspice program size =   11.938 MB.

