
Note: No compatibility mode selected!


Circuit: NOR2 seed characterization sample 4424043

Doing analysis at TEMP = 47.413900 and TNOM = 27.000000

Using SPARSE 1.3 as Direct Linear Solver

Initial Transient Solution
--------------------------

Node                                   Voltage
----                                   -------
vdd                                    1.89152
in                                           0
out                                    1.89152
pmid                                   1.89152
vin#branch                                   0
vdd#branch                        -1.45242e-11

 Reference value :  4.63994e-08
 Reference value :  1.06814e-07
No. of Data Rows : 60044

  Measurements for Transient Analysis

tphl                =  8.91149e-11 targ=  2.12034e-09 trig=  2.03122e-09
tplh                =  3.00236e-10 targ=  2.23939e-08 trig=  2.20937e-08
i_vdd_avg           =  -7.21927e-06 from=  5.00000e-09 to=  1.10002e-07
power_avg_uw        =  1.36554e+01


Total analysis time (seconds) = 0.476937

Total elapsed time (seconds) = 0.548 

Total DRAM available = 16384.000 MB.
DRAM currently available =  224.781 MB.
Maximum ngspice program size =   12.562 MB.
Current ngspice program size =   12.188 MB.

