
Note: No compatibility mode selected!


Circuit: INV seed characterization sample 4424021

Doing analysis at TEMP = 10.807200 and TNOM = 27.000000

Using SPARSE 1.3 as Direct Linear Solver

Initial Transient Solution
--------------------------

Node                                   Voltage
----                                   -------
vdd                                    1.96982
in                                           0
out                                    1.96982
vin#branch                                   0
vdd#branch                        -2.29777e-12

 Reference value :  7.20369e-08
No. of Data Rows : 60044

  Measurements for Transient Analysis

tphl                =  6.99578e-11 targ=  2.22693e-09 trig=  2.15697e-09
tplh                =  1.16504e-10 targ=  2.25874e-08 trig=  2.24709e-08
i_vdd_avg           =  -1.35891e-06 from=  5.00000e-09 to=  1.10001e-07
power_avg_uw        =  2.67680e+00


Total analysis time (seconds) = 0.301974

Total elapsed time (seconds) = 0.371 

Total DRAM available = 16384.000 MB.
DRAM currently available =  209.109 MB.
Maximum ngspice program size =   12.812 MB.
Current ngspice program size =   12.812 MB.

