
Note: No compatibility mode selected!


Circuit: NOR2 seed characterization sample 4424047

Doing analysis at TEMP = 7.812520 and TNOM = 27.000000

Using SPARSE 1.3 as Direct Linear Solver

Initial Transient Solution
--------------------------

Node                                   Voltage
----                                   -------
vdd                                    1.80877
in                                           0
out                                    1.80877
pmid                                   1.80877
vin#branch                                   0
vdd#branch                        -3.70959e-12

 Reference value :  4.56793e-08
 Reference value :  1.05874e-07
No. of Data Rows : 60044

  Measurements for Transient Analysis

tphl                =  6.89888e-11 targ=  2.16712e-09 trig=  2.09813e-09
tplh                =  1.76439e-10 targ=  2.24708e-08 trig=  2.22944e-08
i_vdd_avg           =  -5.69960e-07 from=  5.00000e-09 to=  1.10002e-07
power_avg_uw        =  1.03093e+00


Total analysis time (seconds) = 0.480429

Total elapsed time (seconds) = 0.552 

Total DRAM available = 16384.000 MB.
DRAM currently available =  204.141 MB.
Maximum ngspice program size =   12.562 MB.
Current ngspice program size =   11.734 MB.

