
Note: No compatibility mode selected!


Circuit: NAND2 seed characterization sample 4424022

Doing analysis at TEMP = 51.386100 and TNOM = 27.000000

Using SPARSE 1.3 as Direct Linear Solver

Initial Transient Solution
--------------------------

Node                                   Voltage
----                                   -------
vdd                                    1.92301
in                                           0
out                                    1.92301
nmid                                 0.0514919
vin#branch                                   0
vdd#branch                        -3.23366e-12

 Reference value :  4.73947e-08
 Reference value :  1.08910e-07
No. of Data Rows : 60044

  Measurements for Transient Analysis

tphl                =  1.89160e-10 targ=  2.40900e-09 trig=  2.21984e-09
tplh                =  1.26356e-10 targ=  2.27859e-08 trig=  2.26595e-08
i_vdd_avg           =  -2.55566e-06 from=  5.00000e-09 to=  1.10000e-07
power_avg_uw        =  4.91456e+00


Total analysis time (seconds) = 0.468385

Total elapsed time (seconds) = 0.538 

Total DRAM available = 16384.000 MB.
DRAM currently available =  209.109 MB.
Maximum ngspice program size =   12.562 MB.
Current ngspice program size =   11.594 MB.

