
Note: No compatibility mode selected!


Circuit: NAND2 seed characterization sample 4424030

Doing analysis at TEMP = 36.107700 and TNOM = 27.000000

Using SPARSE 1.3 as Direct Linear Solver

Initial Transient Solution
--------------------------

Node                                   Voltage
----                                   -------
vdd                                    1.63261
in                                           0
out                                    1.63261
nmid                                 0.0401747
vin#branch                                   0
vdd#branch                        -1.96723e-12

 Reference value :  4.67642e-08
 Reference value :  1.07755e-07
No. of Data Rows : 60047

  Measurements for Transient Analysis

tphl                =  3.34822e-10 targ=  2.38243e-09 trig=  2.04761e-09
tplh                =  1.12606e-10 targ=  2.22554e-08 trig=  2.21428e-08
i_vdd_avg           =  -4.42148e-06 from=  5.00000e-09 to=  1.10001e-07
power_avg_uw        =  7.21855e+00


Total analysis time (seconds) = 0.471561

Total elapsed time (seconds) = 0.542 

Total DRAM available = 16384.000 MB.
DRAM currently available =  224.234 MB.
Maximum ngspice program size =   12.562 MB.
Current ngspice program size =   11.656 MB.

