
Note: No compatibility mode selected!


Circuit: XOR2 seed characterization sample 4424040

Doing analysis at TEMP = 1.997760 and TNOM = 27.000000

Using SPARSE 1.3 as Direct Linear Solver

Initial Transient Solution
--------------------------

Node                                   Voltage
----                                   -------
vdd                                    1.79789
in                                           0
b                                      1.79789
abar                                   1.79789
bbar                               1.10141e-09
out                                    1.79789
vb#branch                                    0
vin#branch                         1.93048e-12
vdd#branch                        -1.10649e-11

 Reference value :  2.59114e-08
 Reference value :  6.03752e-08
 Reference value :  9.66292e-08
No. of Data Rows : 60044

  Measurements for Transient Analysis

tphl                =  2.80444e-10 targ=  2.37254e-09 trig=  2.09210e-09
tplh                =  4.20391e-10 targ=  2.26967e-08 trig=  2.22763e-08
i_vdd_avg           =  -6.24626e-06 from=  5.00000e-09 to=  1.10001e-07
power_avg_uw        =  1.12301e+01


Total analysis time (seconds) = 0.816301

Total elapsed time (seconds) = 0.890 

Total DRAM available = 16384.000 MB.
DRAM currently available =  208.375 MB.
Maximum ngspice program size =   12.562 MB.
Current ngspice program size =   11.750 MB.

