
Note: No compatibility mode selected!


Circuit: NOR2 seed characterization sample 4424031

Doing analysis at TEMP = 26.197400 and TNOM = 27.000000

Using SPARSE 1.3 as Direct Linear Solver

Initial Transient Solution
--------------------------

Node                                   Voltage
----                                   -------
vdd                                    1.90586
in                                           0
out                                    1.90586
pmid                                   1.90586
vin#branch                                   0
vdd#branch                        -5.84625e-12

 Reference value :  4.53944e-08
 Reference value :  1.04940e-07
No. of Data Rows : 60047

  Measurements for Transient Analysis

tphl                =  6.22005e-11 targ=  2.09888e-09 trig=  2.03668e-09
tplh                =  2.39561e-10 targ=  2.23496e-08 trig=  2.21100e-08
i_vdd_avg           =  -4.11976e-06 from=  5.00000e-09 to=  1.10002e-07
power_avg_uw        =  7.85168e+00


Total analysis time (seconds) = 0.482487

Total elapsed time (seconds) = 0.554 

Total DRAM available = 16384.000 MB.
DRAM currently available =  224.234 MB.
Maximum ngspice program size =   12.562 MB.
Current ngspice program size =   11.797 MB.

