
Note: No compatibility mode selected!


Circuit: INV seed characterization sample 4424005

Doing analysis at TEMP = -13.623900 and TNOM = 27.000000

Using SPARSE 1.3 as Direct Linear Solver

Initial Transient Solution
--------------------------

Node                                   Voltage
----                                   -------
vdd                                    1.94469
in                                           0
out                                    1.94469
vin#branch                                   0
vdd#branch                        -1.96585e-12

 Reference value :  7.49524e-08
No. of Data Rows : 60044

  Measurements for Transient Analysis

tphl                =  2.28354e-10 targ=  2.24519e-09 trig=  2.01684e-09
tplh                =  2.53766e-10 targ=  2.23043e-08 trig=  2.20505e-08
i_vdd_avg           =  -5.49985e-06 from=  5.00000e-09 to=  1.10000e-07
power_avg_uw        =  1.06955e+01


Total analysis time (seconds) = 0.290398

Total elapsed time (seconds) = 0.358 

Total DRAM available = 16384.000 MB.
DRAM currently available =  227.641 MB.
Maximum ngspice program size =   12.562 MB.
Current ngspice program size =   11.656 MB.

