
Note: No compatibility mode selected!


Circuit: NOR2 seed characterization sample 4424015

Doing analysis at TEMP = 63.431000 and TNOM = 27.000000

Using SPARSE 1.3 as Direct Linear Solver

Initial Transient Solution
--------------------------

Node                                   Voltage
----                                   -------
vdd                                     1.8217
in                                           0
out                                     1.8217
pmid                                    1.8217
vin#branch                                   0
vdd#branch                        -3.43648e-11

 Reference value :  4.73443e-08
 Reference value :  1.08158e-07
No. of Data Rows : 60047

  Measurements for Transient Analysis

tphl                =  1.01956e-10 targ=  2.26560e-09 trig=  2.16364e-09
tplh                =  2.50132e-10 targ=  2.27411e-08 trig=  2.24909e-08
i_vdd_avg           =  -3.77083e-06 from=  5.00000e-09 to=  1.10002e-07
power_avg_uw        =  6.86931e+00


Total analysis time (seconds) = 0.475846

Total elapsed time (seconds) = 0.543 

Total DRAM available = 16384.000 MB.
DRAM currently available =  229.891 MB.
Maximum ngspice program size =   12.562 MB.
Current ngspice program size =   11.594 MB.

