
Note: No compatibility mode selected!


Circuit: NOR2 seed characterization sample 4424035

Doing analysis at TEMP = 81.045300 and TNOM = 27.000000

Using SPARSE 1.3 as Direct Linear Solver

Initial Transient Solution
--------------------------

Node                                   Voltage
----                                   -------
vdd                                    1.63831
in                                           0
out                                    1.63831
pmid                                   1.63831
vin#branch                                   0
vdd#branch                        -1.97488e-11

 Reference value :  4.55065e-08
 Reference value :  1.05032e-07
No. of Data Rows : 60047

  Measurements for Transient Analysis

tphl                =  2.64912e-10 targ=  2.46966e-09 trig=  2.20475e-09
tplh                =  8.95392e-10 targ=  2.35096e-08 trig=  2.26142e-08
i_vdd_avg           =  -3.31743e-06 from=  5.00000e-09 to=  1.10002e-07
power_avg_uw        =  5.43498e+00


Total analysis time (seconds) = 0.483761

Total elapsed time (seconds) = 0.556 

Total DRAM available = 16384.000 MB.
DRAM currently available =  209.406 MB.
Maximum ngspice program size =   12.562 MB.
Current ngspice program size =   11.625 MB.

