
Note: No compatibility mode selected!


Circuit: NOR2 seed characterization sample 4424019

Doing analysis at TEMP = 10.297700 and TNOM = 27.000000

Using SPARSE 1.3 as Direct Linear Solver

Initial Transient Solution
--------------------------

Node                                   Voltage
----                                   -------
vdd                                    1.65015
in                                           0
out                                    1.65015
pmid                                   1.65015
vin#branch                                   0
vdd#branch                        -3.56011e-12

 Reference value :  4.58898e-08
 Reference value :  1.06273e-07
No. of Data Rows : 60041

  Measurements for Transient Analysis

tphl                =  6.52891e-11 targ=  2.12867e-09 trig=  2.06338e-09
tplh                =  1.74125e-10 targ=  2.23643e-08 trig=  2.21902e-08
i_vdd_avg           =  -1.36540e-06 from=  5.00000e-09 to=  1.10001e-07
power_avg_uw        =  2.25312e+00


Total analysis time (seconds) = 0.481102

Total elapsed time (seconds) = 0.550 

Total DRAM available = 16384.000 MB.
DRAM currently available =  228.688 MB.
Maximum ngspice program size =   12.562 MB.
Current ngspice program size =   11.906 MB.

