
Note: No compatibility mode selected!


Circuit: XOR2 seed characterization sample 4424044

Doing analysis at TEMP = 49.307000 and TNOM = 27.000000

Using SPARSE 1.3 as Direct Linear Solver

Initial Transient Solution
--------------------------

Node                                   Voltage
----                                   -------
vdd                                     1.8175
in                                           0
b                                       1.8175
abar                                    1.8175
bbar                               1.76654e-09
out                                     1.8175
vb#branch                                    0
vin#branch                         6.51334e-12
vdd#branch                        -1.92765e-11

 Reference value :  2.57786e-08
 Reference value :  6.01548e-08
 Reference value :  9.65188e-08
No. of Data Rows : 60044

  Measurements for Transient Analysis

tphl                =  1.45789e-10 targ=  2.18768e-09 trig=  2.04189e-09
tplh                =  1.41518e-10 targ=  2.22672e-08 trig=  2.21257e-08
i_vdd_avg           =  -2.39705e-06 from=  5.00000e-09 to=  1.10001e-07
power_avg_uw        =  4.35664e+00


Total analysis time (seconds) = 0.814383

Total elapsed time (seconds) = 0.889 

Total DRAM available = 16384.000 MB.
DRAM currently available =  224.781 MB.
Maximum ngspice program size =   12.578 MB.
Current ngspice program size =   11.891 MB.

