
Note: No compatibility mode selected!


Circuit: NOR2 seed characterization sample 4424027

Doing analysis at TEMP = 90.848200 and TNOM = 27.000000

Using SPARSE 1.3 as Direct Linear Solver

Initial Transient Solution
--------------------------

Node                                   Voltage
----                                   -------
vdd                                    1.79955
in                                           0
out                                    1.79955
pmid                                   1.79955
vin#branch                                   0
vdd#branch                        -8.74123e-11

 Reference value :  4.51635e-08
 Reference value :  1.03942e-07
No. of Data Rows : 60041

  Measurements for Transient Analysis

tphl                =  1.24695e-10 targ=  2.19795e-09 trig=  2.07325e-09
tplh                =  6.17700e-10 targ=  2.28375e-08 trig=  2.22198e-08
i_vdd_avg           =  -4.73838e-06 from=  5.00000e-09 to=  1.10000e-07
power_avg_uw        =  8.52695e+00


Total analysis time (seconds) = 0.489974

Total elapsed time (seconds) = 0.562 

Total DRAM available = 16384.000 MB.
DRAM currently available =  221.438 MB.
Maximum ngspice program size =   12.609 MB.
Current ngspice program size =   11.828 MB.

