
Note: No compatibility mode selected!


Circuit: NAND2 seed characterization sample 4424026

Doing analysis at TEMP = 91.158600 and TNOM = 27.000000

Using SPARSE 1.3 as Direct Linear Solver

Initial Transient Solution
--------------------------

Node                                   Voltage
----                                   -------
vdd                                    1.63869
in                                           0
out                                    1.63869
nmid                                 0.0501287
vin#branch                                   0
vdd#branch                         -1.3628e-11

 Reference value :  4.60767e-08
 Reference value :  1.06054e-07
No. of Data Rows : 60044

  Measurements for Transient Analysis

tphl                =  3.97260e-10 targ=  2.61611e-09 trig=  2.21885e-09
tplh                =  2.23414e-10 targ=  2.28800e-08 trig=  2.26566e-08
i_vdd_avg           =  -4.47671e-06 from=  5.00000e-09 to=  1.10000e-07
power_avg_uw        =  7.33595e+00


Total analysis time (seconds) = 0.47899

Total elapsed time (seconds) = 0.551 

Total DRAM available = 16384.000 MB.
DRAM currently available =  221.438 MB.
Maximum ngspice program size =   12.953 MB.
Current ngspice program size =   12.953 MB.

