
Note: No compatibility mode selected!


Circuit: GF180MCU library cell nor2_1 A1_to_ZN__A2=0

Doing analysis at TEMP = -6.605372 and TNOM = 27.000000

Using SPARSE 1.3 as Direct Linear Solver

Initial Transient Solution
--------------------------

Node                                   Voltage
----                                   -------
vdd                                    1.80257
a1                                           0
a2                                           0
zn                                     1.80257
xu1.net_0                              1.80257
vfix_a2#branch                               0
vin#branch                                   0
vdd#branch                        -3.62526e-12

 Reference value :  1.04043e-07
 Reference value :  2.50788e-07
No. of Data Rows : 68032

  Measurements for Transient Analysis

tphl                =  5.86265e-09 targ=  3.04679e-08 trig=  2.46052e-08
tplh                =  2.14604e-08 targ=  1.17276e-07 trig=  9.58157e-08
i_vdd_avg           =  -2.10689e-06 from=  1.00000e-08 to=  3.30003e-07
power_avg_uw        =  3.79782e+00


Total analysis time (seconds) = 0.600506

Total elapsed time (seconds) = 0.677 

Total DRAM available = 16384.000 MB.
DRAM currently available =  167.812 MB.
Maximum ngspice program size =   15.797 MB.
Current ngspice program size =   15.797 MB.

