
Note: No compatibility mode selected!


Circuit: GF180MCU library cell nand3_1 A1_to_ZN__A2=1,A3=1

Doing analysis at TEMP = 54.857390 and TNOM = 27.000000

Using SPARSE 1.3 as Direct Linear Solver

Initial Transient Solution
--------------------------

Node                                   Voltage
----                                   -------
vdd                                    1.91178
a1                                           0
a2                                     1.91178
a3                                     1.91178
xu1.net_1                          1.29526e-10
xu1.net_0                          2.59052e-10
zn                                     1.91178
vfix_a3#branch                               0
vfix_a2#branch                               0
vin#branch                                   0
vdd#branch                        -1.93817e-12

 Reference value :  7.27976e-08
 Reference value :  1.77583e-07
 Reference value :  2.78103e-07
No. of Data Rows : 68032

  Measurements for Transient Analysis

tphl                =  4.14737e-09 targ=  3.01724e-08 trig=  2.60251e-08
tplh                =  5.01888e-09 targ=  1.05094e-07 trig=  1.00075e-07
i_vdd_avg           =  -7.24582e-07 from=  1.00000e-08 to=  3.30003e-07
power_avg_uw        =  1.38524e+00


Total analysis time (seconds) = 0.870692

Total elapsed time (seconds) = 0.947 

Total DRAM available = 16384.000 MB.
DRAM currently available =  181.969 MB.
Maximum ngspice program size =   15.734 MB.
Current ngspice program size =   15.734 MB.

