
Note: No compatibility mode selected!


Circuit: GF180MCU library cell oai21_4 A1_to_ZN__A2=0,B=1

Doing analysis at TEMP = 64.260994 and TNOM = 27.000000

Using SPARSE 1.3 as Direct Linear Solver

Initial Transient Solution
--------------------------

Node                                   Voltage
----                                   -------
vdd                                    1.89196
a1                                           0
a2                                           0
b                                      1.89196
zn                                     1.89196
xu1.net_0                          5.38898e-10
xu1.net_1_0                            1.89196
xu1.net_1_1                            1.89196
xu1.net_1_2                            1.89196
xu1.net_1_3                            1.89196
vfix_b#branch                                0
vfix_a2#branch                               0
vin#branch                                   0
vdd#branch                        -1.54777e-11

 Reference value :  2.08314e-08
 Reference value :  5.33637e-08
 Reference value :  8.49987e-08
 Reference value :  1.14335e-07
 Reference value :  1.43175e-07
 Reference value :  1.71210e-07
 Reference value :  2.01439e-07
 Reference value :  2.30574e-07
 Reference value :  2.60089e-07
 Reference value :  2.90500e-07
 Reference value :  3.21265e-07
No. of Data Rows : 68032

  Measurements for Transient Analysis

tphl                =  1.91959e-09 targ=  3.09852e-08 trig=  2.90656e-08
tplh                =  4.22127e-09 targ=  1.13418e-07 trig=  1.09197e-07
i_vdd_avg           =  -5.83401e-07 from=  1.00000e-08 to=  3.30005e-07
power_avg_uw        =  1.10377e+00


Total analysis time (seconds) = 3.0423

Total elapsed time (seconds) = 3.122 

Total DRAM available = 16384.000 MB.
DRAM currently available =  149.844 MB.
Maximum ngspice program size =   18.719 MB.
Current ngspice program size =   18.719 MB.

