
Note: No compatibility mode selected!


Circuit: GF180MCU library cell oai21_1 A1_to_ZN__A2=0,B=1

Doing analysis at TEMP = -31.109090 and TNOM = 27.000000

Using SPARSE 1.3 as Direct Linear Solver

Initial Transient Solution
--------------------------

Node                                   Voltage
----                                   -------
vdd                                    1.93164
a1                                           0
a2                                           0
b                                      1.93164
zn                                     1.93164
xu1.net_0                          2.63597e-14
xu1.net_1                              1.93164
vfix_b#branch                                0
vfix_a2#branch                               0
vin#branch                                   0
vdd#branch                        -3.88328e-12

 Reference value :  8.17169e-08
 Reference value :  1.90108e-07
 Reference value :  3.08786e-07
No. of Data Rows : 68032

  Measurements for Transient Analysis

tphl                =  1.90475e-09 targ=  2.89695e-08 trig=  2.70647e-08
tplh                =  3.45254e-09 targ=  1.06647e-07 trig=  1.03194e-07
i_vdd_avg           =  -2.18040e-07 from=  1.00000e-08 to=  3.30001e-07
power_avg_uw        =  4.21174e-01


Total analysis time (seconds) = 0.780596

Total elapsed time (seconds) = 0.854 

Total DRAM available = 16384.000 MB.
DRAM currently available =  167.812 MB.
Maximum ngspice program size =   17.469 MB.
Current ngspice program size =   17.469 MB.

