
Note: No compatibility mode selected!


Circuit: GF180MCU library cell nand3_1 A1_to_ZN__A2=1,A3=1

Doing analysis at TEMP = 42.177680 and TNOM = 27.000000

Using SPARSE 1.3 as Direct Linear Solver

Initial Transient Solution
--------------------------

Node                                   Voltage
----                                   -------
vdd                                    1.67209
a1                                           0
a2                                     1.67209
a3                                     1.67209
xu1.net_1                          5.07465e-11
xu1.net_0                          1.01493e-10
zn                                     1.67209
vfix_a3#branch                               0
vfix_a2#branch                               0
vin#branch                                   0
vdd#branch                        -1.68751e-12

 Reference value :  7.29184e-08
 Reference value :  1.87098e-07
 Reference value :  2.97259e-07
No. of Data Rows : 68032

  Measurements for Transient Analysis

tphl                =  7.64502e-09 targ=  3.54355e-08 trig=  2.77904e-08
tplh                =  9.70221e-09 targ=  1.15074e-07 trig=  1.05371e-07
i_vdd_avg           =  -8.54595e-07 from=  1.00000e-08 to=  3.30004e-07
power_avg_uw        =  1.42896e+00


Total analysis time (seconds) = 0.84789

Total elapsed time (seconds) = 0.916 

Total DRAM available = 16384.000 MB.
DRAM currently available =  149.844 MB.
Maximum ngspice program size =   16.562 MB.
Current ngspice program size =   16.562 MB.

