
Note: No compatibility mode selected!


Circuit: GF180MCU library cell xor2_4 A1_to_Z__A2=0

Doing analysis at TEMP = -6.792472 and TNOM = 27.000000

Using SPARSE 1.3 as Direct Linear Solver

Initial Transient Solution
--------------------------

Node                                   Voltage
----                                   -------
vdd                                    1.91212
a1                                           0
a2                                           0
xu1.net_2                          0.000243076
xu1.i                                  1.91212
xu1.net_0                          6.43772e-13
xu1.z_neg                              1.91212
z                                  1.31214e-08
xu1.net_1                              1.91212
vfix_a2#branch                               0
vin#branch                                   0
vdd#branch                        -1.37765e-11

 Reference value :  2.73511e-08
 Reference value :  6.84511e-08
 Reference value :  1.11030e-07
 Reference value :  1.48445e-07
 Reference value :  1.85926e-07
 Reference value :  2.24606e-07
 Reference value :  2.65610e-07
 Reference value :  3.05855e-07
No. of Data Rows : 68034

  Measurements for Transient Analysis

tplh                =  1.22173e-09 targ=  2.60510e-08 trig=  2.48293e-08
tphl                =  2.20985e-09 targ=  9.86977e-08 trig=  9.64878e-08
i_vdd_avg           =  -2.68055e-07 from=  1.00000e-08 to=  3.30005e-07
power_avg_uw        =  5.12555e-01


Total analysis time (seconds) = 2.35361

Total elapsed time (seconds) = 2.429 

Total DRAM available = 16384.000 MB.
DRAM currently available =  159.484 MB.
Maximum ngspice program size =   17.016 MB.
Current ngspice program size =   17.016 MB.

