
Note: No compatibility mode selected!


Circuit: GF180MCU library cell xor2_4 A1_to_Z__A2=0

Doing analysis at TEMP = 63.465655 and TNOM = 27.000000

Using SPARSE 1.3 as Direct Linear Solver

Initial Transient Solution
--------------------------

Node                                   Voltage
----                                   -------
vdd                                    1.83152
a1                                           0
a2                                           0
xu1.net_2                             0.023024
xu1.i                                  1.83152
xu1.net_0                          5.19617e-10
xu1.z_neg                              1.83152
z                                  1.64961e-08
xu1.net_1                              1.83152
vfix_a2#branch                               0
vin#branch                                   0
vdd#branch                        -1.33523e-11

 Reference value :  2.63025e-08
 Reference value :  6.74074e-08
 Reference value :  1.12097e-07
 Reference value :  1.60367e-07
 Reference value :  2.14922e-07
 Reference value :  2.73957e-07
 Reference value :  3.35562e-07
No. of Data Rows : 68032

  Measurements for Transient Analysis

tplh                =  2.19837e-09 targ=  2.75658e-08 trig=  2.53674e-08
tphl                =  3.36956e-09 targ=  1.01472e-07 trig=  9.81023e-08
i_vdd_avg           =  -6.48141e-07 from=  1.00000e-08 to=  3.30002e-07
power_avg_uw        =  1.18708e+00


Total analysis time (seconds) = 1.69952

Total elapsed time (seconds) = 1.787 

Total DRAM available = 16384.000 MB.
DRAM currently available =  260.562 MB.
Maximum ngspice program size =   17.703 MB.
Current ngspice program size =   17.703 MB.

