
Note: No compatibility mode selected!


Circuit: GF180MCU library cell oai21_1 A1_to_ZN__A2=0,B=1

Doing analysis at TEMP = 33.043204 and TNOM = 27.000000

Using SPARSE 1.3 as Direct Linear Solver

Initial Transient Solution
--------------------------

Node                                   Voltage
----                                   -------
vdd                                    1.82191
a1                                           0
a2                                           0
b                                      1.82191
zn                                     1.82191
xu1.net_0                          4.21759e-11
xu1.net_1                              1.82191
vfix_b#branch                                0
vfix_a2#branch                               0
vin#branch                                   0
vdd#branch                         -3.6691e-12

 Reference value :  6.50964e-08
 Reference value :  1.65055e-07
 Reference value :  2.67405e-07
No. of Data Rows : 68032

  Measurements for Transient Analysis

tphl                =  4.34571e-09 targ=  2.98052e-08 trig=  2.54595e-08
tplh                =  1.14277e-08 targ=  1.09806e-07 trig=  9.83784e-08
i_vdd_avg           =  -1.04907e-06 from=  1.00000e-08 to=  3.30000e-07
power_avg_uw        =  1.91131e+00


Total analysis time (seconds) = 0.92295

Total elapsed time (seconds) = 0.999 

Total DRAM available = 16384.000 MB.
DRAM currently available =  167.719 MB.
Maximum ngspice program size =   17.328 MB.
Current ngspice program size =   17.328 MB.

