
Note: No compatibility mode selected!


Circuit: GF180MCU library cell nor2_4 A1_to_ZN__A2=0

Doing analysis at TEMP = 90.360274 and TNOM = 27.000000

Using SPARSE 1.3 as Direct Linear Solver

Initial Transient Solution
--------------------------

Node                                   Voltage
----                                   -------
vdd                                     1.9537
a1                                           0
a2                                           0
zn                                      1.9537
xu1.net_0_0                             1.9537
xu1.net_0_1                             1.9537
xu1.net_0_2                             1.9537
xu1.net_0_3                             1.9537
vfix_a2#branch                               0
vin#branch                                   0
vdd#branch                        -1.73322e-11

 Reference value :  3.22236e-08
 Reference value :  7.86786e-08
 Reference value :  1.22710e-07
 Reference value :  1.70915e-07
 Reference value :  2.14414e-07
 Reference value :  2.60300e-07
 Reference value :  3.06050e-07
No. of Data Rows : 68032

  Measurements for Transient Analysis

tphl                =  1.65479e-09 targ=  2.68503e-08 trig=  2.51955e-08
tplh                =  4.26369e-09 targ=  1.01850e-07 trig=  9.75866e-08
i_vdd_avg           =  -1.74679e-06 from=  1.00000e-08 to=  3.30005e-07
power_avg_uw        =  3.41271e+00


Total analysis time (seconds) = 2.00824

Total elapsed time (seconds) = 2.071 

Total DRAM available = 16384.000 MB.
DRAM currently available =  148.156 MB.
Maximum ngspice program size =   14.188 MB.
Current ngspice program size =   14.188 MB.

