
Note: No compatibility mode selected!


Circuit: GF180MCU library cell mux2_1 I0_to_Z__I1=0,S=0

Doing analysis at TEMP = -12.664857 and TNOM = 27.000000

Using SPARSE 1.3 as Direct Linear Solver

Initial Transient Solution
--------------------------

Node                                   Voltage
----                                   -------
vdd                                    1.67335
i0                                           0
i1                                           0
s                                            0
xu1.int04                              1.67335
z                                  1.39658e-08
xu1.net_1                          0.000117998
xu1.net_3                              1.03263
xu1.sel1_n                             1.67335
xu1.net_0                              1.67335
xu1.net_2                              1.67335
vfix_s#branch                                0
vfix_i1#branch                               0
vin#branch                                   0
vdd#branch                        -8.88591e-12

 Reference value :  3.68740e-08
 Reference value :  9.19140e-08
 Reference value :  1.43950e-07
 Reference value :  1.95939e-07
 Reference value :  2.52704e-07
 Reference value :  3.10280e-07
No. of Data Rows : 68030

  Measurements for Transient Analysis

tplh                =  5.96786e-09 targ=  3.06636e-08 trig=  2.46957e-08
tphl                =  4.30352e-09 targ=  1.00391e-07 trig=  9.60872e-08
i_vdd_avg           =  -8.14298e-07 from=  1.00000e-08 to=  3.30000e-07
power_avg_uw        =  1.36261e+00


Total analysis time (seconds) = 1.64878

Total elapsed time (seconds) = 1.723 

Total DRAM available = 16384.000 MB.
DRAM currently available =  181.969 MB.
Maximum ngspice program size =   17.156 MB.
Current ngspice program size =   17.156 MB.

