
Note: No compatibility mode selected!


Circuit: GF180MCU library cell nor2_4 A1_to_ZN__A2=0

Doing analysis at TEMP = 122.836940 and TNOM = 27.000000

Using SPARSE 1.3 as Direct Linear Solver

Initial Transient Solution
--------------------------

Node                                   Voltage
----                                   -------
vdd                                    1.81039
a1                                           0
a2                                           0
zn                                     1.81039
xu1.net_0_0                            1.81039
xu1.net_0_1                            1.81039
xu1.net_0_2                            1.81039
xu1.net_0_3                            1.81039
vfix_a2#branch                               0
vin#branch                                   0
vdd#branch                        -2.41088e-11

 Reference value :  2.82625e-08
 Reference value :  7.11406e-08
 Reference value :  1.15584e-07
 Reference value :  1.56439e-07
 Reference value :  1.99216e-07
 Reference value :  2.43821e-07
 Reference value :  2.88879e-07
 Reference value :  3.31459e-07
No. of Data Rows : 68034

  Measurements for Transient Analysis

tphl                =  2.11787e-09 targ=  2.94094e-08 trig=  2.72916e-08
tplh                =  4.20866e-09 targ=  1.08083e-07 trig=  1.03875e-07
i_vdd_avg           =  -8.92085e-07 from=  1.00000e-08 to=  3.30004e-07
power_avg_uw        =  1.61502e+00


Total analysis time (seconds) = 2.11886

Total elapsed time (seconds) = 2.196 

Total DRAM available = 16384.000 MB.
DRAM currently available =  138.797 MB.
Maximum ngspice program size =   18.844 MB.
Current ngspice program size =   18.844 MB.

