
Note: No compatibility mode selected!


Circuit: GF180MCU library cell nand2_1 A1_to_ZN__A2=1

Doing analysis at TEMP = -9.233869 and TNOM = 27.000000

Using SPARSE 1.3 as Direct Linear Solver

Initial Transient Solution
--------------------------

Node                                   Voltage
----                                   -------
vdd                                    1.91264
a1                                           0
a2                                     1.91264
xu1.net_0                          2.39852e-13
zn                                     1.91264
vfix_a2#branch                               0
vin#branch                                   0
vdd#branch                        -1.92267e-12

 Reference value :  1.11640e-07
 Reference value :  2.68470e-07
No. of Data Rows : 68032

  Measurements for Transient Analysis

tphl                =  3.18233e-09 targ=  2.74893e-08 trig=  2.43070e-08
tplh                =  4.74017e-09 targ=  9.96611e-08 trig=  9.49209e-08
i_vdd_avg           =  -1.09568e-06 from=  1.00000e-08 to=  3.30000e-07
power_avg_uw        =  2.09563e+00


Total analysis time (seconds) = 0.568297

Total elapsed time (seconds) = 0.643 

Total DRAM available = 16384.000 MB.
DRAM currently available =  268.719 MB.
Maximum ngspice program size =   16.484 MB.
Current ngspice program size =   16.484 MB.

