
Note: No compatibility mode selected!


Circuit: GF180MCU library cell xor2_4 A1_to_Z__A2=0

Doing analysis at TEMP = 40.692203 and TNOM = 27.000000

Using SPARSE 1.3 as Direct Linear Solver

Initial Transient Solution
--------------------------

Node                                   Voltage
----                                   -------
vdd                                    1.92934
a1                                           0
a2                                           0
xu1.net_2                            0.0102524
xu1.i                                  1.92934
xu1.net_0                          7.96547e-11
xu1.z_neg                              1.92934
z                                  1.51443e-08
xu1.net_1                              1.92934
vfix_a2#branch                               0
vin#branch                                   0
vdd#branch                        -1.39421e-11

 Reference value :  2.35064e-08
 Reference value :  6.21222e-08
 Reference value :  1.00617e-07
 Reference value :  1.36967e-07
 Reference value :  1.75017e-07
 Reference value :  2.11037e-07
 Reference value :  2.47252e-07
 Reference value :  2.88397e-07
 Reference value :  3.26707e-07
No. of Data Rows : 68032

  Measurements for Transient Analysis

tplh                =  4.14863e-09 targ=  3.21085e-08 trig=  2.79598e-08
tphl                =  5.20280e-09 targ=  1.11082e-07 trig=  1.05880e-07
i_vdd_avg           =  -2.04367e-06 from=  1.00000e-08 to=  3.30002e-07
power_avg_uw        =  3.94293e+00


Total analysis time (seconds) = 2.53652

Total elapsed time (seconds) = 2.620 

Total DRAM available = 16384.000 MB.
DRAM currently available =  162.891 MB.
Maximum ngspice program size =   16.812 MB.
Current ngspice program size =   16.812 MB.

