
Note: No compatibility mode selected!


Circuit: GF180MCU library cell mux2_1 I0_to_Z__I1=0,S=0

Doing analysis at TEMP = 30.042756 and TNOM = 27.000000

Using SPARSE 1.3 as Direct Linear Solver

Initial Transient Solution
--------------------------

Node                                   Voltage
----                                   -------
vdd                                    1.83104
i0                                           0
i1                                           0
s                                            0
xu1.int04                              1.83104
z                                  1.50391e-08
xu1.net_1                           0.00541502
xu1.net_3                              1.22795
xu1.sel1_n                             1.83104
xu1.net_0                              1.83104
xu1.net_2                              1.83104
vfix_s#branch                                0
vfix_i1#branch                               0
vin#branch                                   0
vdd#branch                        -9.96451e-12

 Reference value :  3.52019e-08
 Reference value :  8.47219e-08
 Reference value :  1.39676e-07
 Reference value :  1.90943e-07
 Reference value :  2.43227e-07
 Reference value :  2.99456e-07
No. of Data Rows : 68032

  Measurements for Transient Analysis

tplh                =  9.80576e-09 targ=  3.89480e-08 trig=  2.91422e-08
tphl                =  7.47015e-09 targ=  1.16897e-07 trig=  1.09427e-07
i_vdd_avg           =  -1.78645e-06 from=  1.00000e-08 to=  3.30001e-07
power_avg_uw        =  3.27106e+00


Total analysis time (seconds) = 1.7967

Total elapsed time (seconds) = 1.896 

Total DRAM available = 16384.000 MB.
DRAM currently available =  162.891 MB.
Maximum ngspice program size =   17.109 MB.
Current ngspice program size =   17.109 MB.

