
Note: No compatibility mode selected!


Circuit: GF180MCU library cell mux2_1 I0_to_Z__I1=0,S=0

Doing analysis at TEMP = 81.420837 and TNOM = 27.000000

Using SPARSE 1.3 as Direct Linear Solver

Initial Transient Solution
--------------------------

Node                                   Voltage
----                                   -------
vdd                                    1.97703
i0                                           0
i1                                           0
s                                            0
xu1.int04                              1.97703
z                                   1.6797e-08
xu1.net_1                            0.0333172
xu1.net_3                              1.42139
xu1.sel1_n                             1.97703
xu1.net_0                              1.97703
xu1.net_2                              1.97703
vfix_s#branch                                0
vfix_i1#branch                               0
vin#branch                                   0
vdd#branch                        -1.23244e-11

 Reference value :  3.71174e-08
 Reference value :  8.94124e-08
 Reference value :  1.44787e-07
 Reference value :  2.02652e-07
 Reference value :  2.61202e-07
 Reference value :  3.16022e-07
No. of Data Rows : 68032

  Measurements for Transient Analysis

tplh                =  4.31108e-09 targ=  3.25735e-08 trig=  2.82624e-08
tphl                =  4.65502e-09 targ=  1.11442e-07 trig=  1.06787e-07
i_vdd_avg           =  -8.65858e-07 from=  1.00000e-08 to=  3.30002e-07
power_avg_uw        =  1.71183e+00


Total analysis time (seconds) = 1.71088

Total elapsed time (seconds) = 1.785 

Total DRAM available = 16384.000 MB.
DRAM currently available =  137.062 MB.
Maximum ngspice program size =   18.719 MB.
Current ngspice program size =   18.719 MB.

