
Note: No compatibility mode selected!


Circuit: GF180MCU library cell xor2_1 A1_to_Z__A2=0

Doing analysis at TEMP = 4.967945 and TNOM = 27.000000

Using SPARSE 1.3 as Direct Linear Solver

Initial Transient Solution
--------------------------

Node                                   Voltage
----                                   -------
vdd                                    1.87533
a1                                           0
a2                                           0
xu1.i                                  1.87533
z                                   4.6895e-08
xu1.net_0                          3.59111e-11
xu1.net_2                              1.87533
xu1.net_1                             0.907414
vfix_a2#branch                               0
vin#branch                                   0
vdd#branch                        -1.04606e-11

 Reference value :  4.50868e-08
 Reference value :  1.10461e-07
 Reference value :  1.72246e-07
 Reference value :  2.37647e-07
 Reference value :  3.00136e-07
No. of Data Rows : 68032

  Measurements for Transient Analysis

tplh                =  7.21799e-09 targ=  3.22352e-08 trig=  2.50172e-08
tphl                =  3.22425e-09 targ=  1.00276e-07 trig=  9.70515e-08
i_vdd_avg           =  -8.01341e-07 from=  1.00000e-08 to=  3.30001e-07
power_avg_uw        =  1.50278e+00


Total analysis time (seconds) = 1.44816

Total elapsed time (seconds) = 1.545 

Total DRAM available = 16384.000 MB.
DRAM currently available =  138.797 MB.
Maximum ngspice program size =   17.438 MB.
Current ngspice program size =   17.438 MB.

