
Note: No compatibility mode selected!


Circuit: GF180MCU library cell nor2_1 A1_to_ZN__A2=0

Doing analysis at TEMP = -16.380186 and TNOM = 27.000000

Using SPARSE 1.3 as Direct Linear Solver

Initial Transient Solution
--------------------------

Node                                   Voltage
----                                   -------
vdd                                    1.75614
a1                                           0
a2                                           0
zn                                     1.75614
xu1.net_0                              1.75614
vfix_a2#branch                               0
vin#branch                                   0
vdd#branch                        -3.53231e-12

 Reference value :  9.15839e-08
 Reference value :  2.19479e-07
No. of Data Rows : 68030

  Measurements for Transient Analysis

tphl                =  8.04434e-09 targ=  3.75475e-08 trig=  2.95032e-08
tplh                =  2.26697e-08 targ=  1.33179e-07 trig=  1.10510e-07
i_vdd_avg           =  -1.73363e-06 from=  1.00000e-08 to=  3.30000e-07
power_avg_uw        =  3.04449e+00


Total analysis time (seconds) = 0.664773

Total elapsed time (seconds) = 0.748 

Total DRAM available = 16384.000 MB.
DRAM currently available =  142.172 MB.
Maximum ngspice program size =   19.312 MB.
Current ngspice program size =   19.312 MB.

