
Note: No compatibility mode selected!


Circuit: GF180MCU library cell oai21_1 A1_to_ZN__A2=0,B=1

Doing analysis at TEMP = 59.712062 and TNOM = 27.000000

Using SPARSE 1.3 as Direct Linear Solver

Initial Transient Solution
--------------------------

Node                                   Voltage
----                                   -------
vdd                                    1.71516
a1                                           0
a2                                           0
b                                      1.71516
zn                                     1.71516
xu1.net_0                          4.11553e-10
xu1.net_1                              1.71516
vfix_b#branch                                0
vfix_a2#branch                               0
vin#branch                                   0
vdd#branch                        -3.49407e-12

 Reference value :  6.85759e-08
 Reference value :  1.65114e-07
 Reference value :  2.73326e-07
No. of Data Rows : 68034

  Measurements for Transient Analysis

tphl                =  1.19225e-08 targ=  4.18267e-08 trig=  2.99042e-08
tplh                =  3.03508e-08 targ=  1.42063e-07 trig=  1.11713e-07
i_vdd_avg           =  -1.95889e-06 from=  1.00000e-08 to=  3.30004e-07
power_avg_uw        =  3.35982e+00


Total analysis time (seconds) = 0.897337

Total elapsed time (seconds) = 0.980 

Total DRAM available = 16384.000 MB.
DRAM currently available =  171.375 MB.
Maximum ngspice program size =   16.203 MB.
Current ngspice program size =   16.203 MB.

