
Note: No compatibility mode selected!


Circuit: GF180MCU library cell mux2_4 I0_to_Z__I1=0,S=0

Doing analysis at TEMP = -12.753380 and TNOM = 27.000000

Using SPARSE 1.3 as Direct Linear Solver

Initial Transient Solution
--------------------------

Node                                   Voltage
----                                   -------
vdd                                    1.65433
i0                                           0
i1                                           0
s                                            0
xu1.int04                              1.65433
z                                  1.40821e-08
xu1.net_1                          7.60469e-06
xu1.net_3                             0.918227
xu1.sel1_n                             1.65433
xu1.net_0                              1.65433
xu1.net_2                              1.65433
vfix_s#branch                                0
vfix_i1#branch                               0
vin#branch                                   0
vdd#branch                        -1.37676e-11

 Reference value :  2.73425e-08
 Reference value :  6.81458e-08
 Reference value :  1.05956e-07
 Reference value :  1.41224e-07
 Reference value :  1.84323e-07
 Reference value :  2.20856e-07
 Reference value :  2.61836e-07
 Reference value :  3.01429e-07
No. of Data Rows : 68034

  Measurements for Transient Analysis

tplh                =  5.56845e-09 targ=  3.50626e-08 trig=  2.94941e-08
tphl                =  7.26490e-09 targ=  1.17747e-07 trig=  1.10482e-07
i_vdd_avg           =  -1.21113e-06 from=  1.00000e-08 to=  3.30004e-07
power_avg_uw        =  2.00360e+00


Total analysis time (seconds) = 2.39994

Total elapsed time (seconds) = 2.473 

Total DRAM available = 16384.000 MB.
DRAM currently available =  148.156 MB.
Maximum ngspice program size =   15.500 MB.
Current ngspice program size =   15.500 MB.

