
Note: No compatibility mode selected!


Circuit: GF180MCU library cell oai21_1 A1_to_ZN__A2=0,B=1

Doing analysis at TEMP = 122.013790 and TNOM = 27.000000

Using SPARSE 1.3 as Direct Linear Solver

Initial Transient Solution
--------------------------

Node                                   Voltage
----                                   -------
vdd                                    1.90834
a1                                           0
a2                                           0
b                                      1.90834
zn                                     1.90834
xu1.net_0                          2.19181e-08
xu1.net_1                              1.90834
vfix_b#branch                                0
vfix_a2#branch                               0
vin#branch                                   0
vdd#branch                        -6.17125e-12

 Reference value :  6.81655e-08
 Reference value :  1.71994e-07
 Reference value :  2.70629e-07
No. of Data Rows : 68034

  Measurements for Transient Analysis

tphl                =  7.98228e-09 targ=  3.47263e-08 trig=  2.67440e-08
tplh                =  1.97344e-08 targ=  1.21966e-07 trig=  1.02232e-07
i_vdd_avg           =  -1.98451e-06 from=  1.00000e-08 to=  3.30004e-07
power_avg_uw        =  3.78711e+00


Total analysis time (seconds) = 0.881846

Total elapsed time (seconds) = 0.965 

Total DRAM available = 16384.000 MB.
DRAM currently available =  151.875 MB.
Maximum ngspice program size =   18.250 MB.
Current ngspice program size =   18.250 MB.

