
Note: No compatibility mode selected!


Circuit: GF180MCU library cell xor2_1 A1_to_Z__A2=0

Doing analysis at TEMP = 67.141127 and TNOM = 27.000000

Using SPARSE 1.3 as Direct Linear Solver

Initial Transient Solution
--------------------------

Node                                   Voltage
----                                   -------
vdd                                    1.81245
a1                                           0
a2                                           0
xu1.i                                  1.81245
z                                  5.95442e-08
xu1.net_0                          7.90937e-09
xu1.net_2                              1.81245
xu1.net_1                             0.782424
vfix_a2#branch                               0
vin#branch                                   0
vdd#branch                        -1.09203e-11

 Reference value :  4.48334e-08
 Reference value :  1.11419e-07
 Reference value :  1.77814e-07
 Reference value :  2.43738e-07
 Reference value :  3.09279e-07
No. of Data Rows : 68032

  Measurements for Transient Analysis

tplh                =  2.26598e-08 targ=  4.97178e-08 trig=  2.70580e-08
tphl                =  7.22387e-09 targ=  1.10398e-07 trig=  1.03174e-07
i_vdd_avg           =  -2.08755e-06 from=  1.00000e-08 to=  3.30004e-07
power_avg_uw        =  3.78358e+00


Total analysis time (seconds) = 1.366

Total elapsed time (seconds) = 1.449 

Total DRAM available = 16384.000 MB.
DRAM currently available =  180.219 MB.
Maximum ngspice program size =   17.734 MB.
Current ngspice program size =   17.734 MB.

