
Note: No compatibility mode selected!


Circuit: GF180MCU library cell nand2_4 A1_to_ZN__A2=1

Doing analysis at TEMP = 35.436818 and TNOM = 27.000000

Using SPARSE 1.3 as Direct Linear Solver

Initial Transient Solution
--------------------------

Node                                   Voltage
----                                   -------
vdd                                    1.92515
a1                                           0
a2                                     1.92515
xu1.net_0_0                        2.51271e-11
zn                                     1.92515
xu1.net_0_1                        2.51271e-11
xu1.net_0_2                        2.51271e-11
xu1.net_0_3                        2.51271e-11
vfix_a2#branch                               0
vin#branch                                   0
vdd#branch                        -7.75417e-12

 Reference value :  3.23158e-08
 Reference value :  8.33408e-08
 Reference value :  1.26009e-07
 Reference value :  1.66959e-07
 Reference value :  2.08906e-07
 Reference value :  2.51711e-07
 Reference value :  2.97944e-07
No. of Data Rows : 68034

  Measurements for Transient Analysis

tphl                =  7.04005e-10 targ=  2.84406e-08 trig=  2.77366e-08
tplh                =  1.67246e-09 targ=  1.06882e-07 trig=  1.05210e-07
i_vdd_avg           =  -1.59404e-07 from=  1.00000e-08 to=  3.30004e-07
power_avg_uw        =  3.06876e-01


Total analysis time (seconds) = 2.02359

Total elapsed time (seconds) = 2.091 

Total DRAM available = 16384.000 MB.
DRAM currently available =  151.875 MB.
Maximum ngspice program size =   14.188 MB.
Current ngspice program size =   14.188 MB.

