
Note: No compatibility mode selected!


Circuit: GF180MCU library cell inv_1 I_to_ZN

Doing analysis at TEMP = -26.656410 and TNOM = 27.000000

Using SPARSE 1.3 as Direct Linear Solver

Initial Transient Solution
--------------------------

Node                                   Voltage
----                                   -------
vdd                                    1.79454
i                                            0
zn                                     1.79454
vin#branch                                   0
vdd#branch                        -1.80455e-12

 Reference value :  1.66908e-07
No. of Data Rows : 68034

  Measurements for Transient Analysis

tphl                =  5.92174e-09 targ=  3.39182e-08 trig=  2.79964e-08
tplh                =  1.20879e-08 targ=  1.18077e-07 trig=  1.05989e-07
i_vdd_avg           =  -1.97699e-06 from=  1.00000e-08 to=  3.30003e-07
power_avg_uw        =  3.54780e+00


Total analysis time (seconds) = 0.362739

Total elapsed time (seconds) = 0.442 

Total DRAM available = 16384.000 MB.
DRAM currently available =  148.156 MB.
Maximum ngspice program size =   17.625 MB.
Current ngspice program size =   17.625 MB.

