
Note: No compatibility mode selected!


Circuit: GF180MCU library cell aoi21_4 A1_to_ZN__A2=1,B=0

Doing analysis at TEMP = 99.521249 and TNOM = 27.000000

Using SPARSE 1.3 as Direct Linear Solver

Initial Transient Solution
--------------------------

Node                                   Voltage
----                                   -------
vdd                                    1.86479
a1                                           0
a2                                     1.86479
b                                            0
xu1.net_0_0                        2.99862e-09
zn                                     1.86479
xu1.net_0_1                        2.99862e-09
xu1.net_0_2                        2.99862e-09
xu1.net_0_3                        2.99862e-09
xu1.net_1                              1.86479
vfix_b#branch                                0
vfix_a2#branch                               0
vin#branch                                   0
vdd#branch                        -1.78668e-11

 Reference value :  2.16064e-08
 Reference value :  5.20448e-08
 Reference value :  8.33548e-08
 Reference value :  1.12730e-07
 Reference value :  1.44622e-07
 Reference value :  1.75077e-07
 Reference value :  2.03495e-07
 Reference value :  2.34585e-07
 Reference value :  2.65350e-07
 Reference value :  2.93247e-07
 Reference value :  3.23657e-07
No. of Data Rows : 68030

  Measurements for Transient Analysis

tphl                =  3.45656e-09 targ=  3.26052e-08 trig=  2.91486e-08
tplh                =  6.52988e-09 targ=  1.15976e-07 trig=  1.09446e-07
i_vdd_avg           =  -1.50896e-06 from=  1.00000e-08 to=  3.30002e-07
power_avg_uw        =  2.81389e+00


Total analysis time (seconds) = 3.05375

Total elapsed time (seconds) = 3.141 

Total DRAM available = 16384.000 MB.
DRAM currently available =  148.156 MB.
Maximum ngspice program size =   18.672 MB.
Current ngspice program size =   18.672 MB.

