
Note: No compatibility mode selected!


Circuit: GF180MCU library cell mux2_4 I0_to_Z__I1=0,S=0

Doing analysis at TEMP = 49.448960 and TNOM = 27.000000

Using SPARSE 1.3 as Direct Linear Solver

Initial Transient Solution
--------------------------

Node                                   Voltage
----                                   -------
vdd                                    1.83802
i0                                           0
i1                                           0
s                                            0
xu1.int04                              1.83802
z                                  1.58575e-08
xu1.net_1                           0.00334261
xu1.net_3                               1.1683
xu1.sel1_n                             1.83802
xu1.net_0                              1.83802
xu1.net_2                              1.83802
vfix_s#branch                                0
vfix_i1#branch                               0
vin#branch                                   0
vdd#branch                        -1.56244e-11

 Reference value :  2.77125e-08
 Reference value :  6.91303e-08
 Reference value :  1.08715e-07
 Reference value :  1.46123e-07
 Reference value :  1.89898e-07
 Reference value :  2.29805e-07
 Reference value :  2.68260e-07
 Reference value :  3.10338e-07
No. of Data Rows : 68034

  Measurements for Transient Analysis

tplh                =  5.24151e-09 targ=  3.37629e-08 trig=  2.85214e-08
tphl                =  5.95253e-09 targ=  1.13517e-07 trig=  1.07564e-07
i_vdd_avg           =  -2.36821e-06 from=  1.00000e-08 to=  3.30003e-07
power_avg_uw        =  4.35281e+00


Total analysis time (seconds) = 2.24729

Total elapsed time (seconds) = 2.326 

Total DRAM available = 16384.000 MB.
DRAM currently available =  163.750 MB.
Maximum ngspice program size =   17.000 MB.
Current ngspice program size =   17.000 MB.

