
Note: No compatibility mode selected!


Circuit: GF180MCU library cell mux2_1 I0_to_Z__I1=0,S=0

Doing analysis at TEMP = -10.787002 and TNOM = 27.000000

Using SPARSE 1.3 as Direct Linear Solver

Initial Transient Solution
--------------------------

Node                                   Voltage
----                                   -------
vdd                                    1.76632
i0                                           0
i1                                           0
s                                            0
xu1.int04                              1.76631
z                                  1.35429e-08
xu1.net_1                           0.00015044
xu1.net_3                              1.10925
xu1.sel1_n                             1.76632
xu1.net_0                              1.76632
xu1.net_2                              1.76631
vfix_s#branch                                0
vfix_i1#branch                               0
vin#branch                                   0
vdd#branch                        -9.41673e-12

 Reference value :  4.48330e-08
 Reference value :  1.03464e-07
 Reference value :  1.67999e-07
 Reference value :  2.32303e-07
 Reference value :  2.94954e-07
No. of Data Rows : 68032

  Measurements for Transient Analysis

tplh                =  1.29163e-08 targ=  3.84166e-08 trig=  2.55003e-08
tphl                =  7.07467e-09 targ=  1.05575e-07 trig=  9.85008e-08
i_vdd_avg           =  -2.32586e-06 from=  1.00000e-08 to=  3.30004e-07
power_avg_uw        =  4.10821e+00


Total analysis time (seconds) = 1.4805

Total elapsed time (seconds) = 1.551 

Total DRAM available = 16384.000 MB.
DRAM currently available =  167.812 MB.
Maximum ngspice program size =   16.922 MB.
Current ngspice program size =   16.922 MB.

