
Note: No compatibility mode selected!


Circuit: GF180MCU library cell inv_4 I_to_ZN

Doing analysis at TEMP = 27.857198 and TNOM = 27.000000

Using SPARSE 1.3 as Direct Linear Solver

Initial Transient Solution
--------------------------

Node                                   Voltage
----                                   -------
vdd                                    1.74317
i                                            0
zn                                     1.74317
vin#branch                                   0
vdd#branch                        -7.01914e-12

 Reference value :  6.28558e-08
 Reference value :  1.48694e-07
 Reference value :  2.35156e-07
 Reference value :  3.19694e-07
No. of Data Rows : 68034

  Measurements for Transient Analysis

tphl                =  1.51685e-09 targ=  3.14535e-08 trig=  2.99366e-08
tplh                =  3.34896e-09 targ=  1.15159e-07 trig=  1.11810e-07
i_vdd_avg           =  -2.35688e-07 from=  1.00000e-08 to=  3.30004e-07
power_avg_uw        =  4.10845e-01


Total analysis time (seconds) = 1.04093

Total elapsed time (seconds) = 1.117 

Total DRAM available = 16384.000 MB.
DRAM currently available =  137.062 MB.
Maximum ngspice program size =   16.781 MB.
Current ngspice program size =   16.781 MB.

