
Note: No compatibility mode selected!


Circuit: GF180MCU library cell nand2_4 A1_to_ZN__A2=1

Doing analysis at TEMP = 50.527385 and TNOM = 27.000000

Using SPARSE 1.3 as Direct Linear Solver

Initial Transient Solution
--------------------------

Node                                   Voltage
----                                   -------
vdd                                    1.83416
a1                                           0
a2                                     1.83416
xu1.net_0_0                        9.42399e-11
zn                                     1.83416
xu1.net_0_1                        9.42399e-11
xu1.net_0_2                        9.42399e-11
xu1.net_0_3                        9.42399e-11
vfix_a2#branch                               0
vin#branch                                   0
vdd#branch                        -7.42209e-12

 Reference value :  3.05275e-08
 Reference value :  7.55622e-08
 Reference value :  1.19142e-07
 Reference value :  1.62572e-07
 Reference value :  2.06737e-07
 Reference value :  2.51782e-07
 Reference value :  2.96037e-07
 Reference value :  3.39682e-07
No. of Data Rows : 68032

  Measurements for Transient Analysis

tphl                =  3.46221e-09 targ=  3.31621e-08 trig=  2.96999e-08
tplh                =  5.19734e-09 targ=  1.16297e-07 trig=  1.11100e-07
i_vdd_avg           =  -1.26599e-06 from=  1.00000e-08 to=  3.30002e-07
power_avg_uw        =  2.32203e+00


Total analysis time (seconds) = 2.07775

Total elapsed time (seconds) = 2.152 

Total DRAM available = 16384.000 MB.
DRAM currently available =  121.422 MB.
Maximum ngspice program size =   16.109 MB.
Current ngspice program size =   16.109 MB.

