
Note: No compatibility mode selected!


Circuit: GF180MCU library cell nor2_1 A1_to_ZN__A2=0

Doing analysis at TEMP = 92.228884 and TNOM = 27.000000

Using SPARSE 1.3 as Direct Linear Solver

Initial Transient Solution
--------------------------

Node                                   Voltage
----                                   -------
vdd                                    1.86048
a1                                           0
a2                                           0
zn                                     1.86048
xu1.net_0                              1.86048
vfix_a2#branch                               0
vin#branch                                   0
vdd#branch                        -4.18006e-12

 Reference value :  1.09534e-07
 Reference value :  2.52543e-07
No. of Data Rows : 68032

  Measurements for Transient Analysis

tphl                =  2.82559e-09 targ=  2.87509e-08 trig=  2.59253e-08
tplh                =  7.65131e-09 targ=  1.07427e-07 trig=  9.97759e-08
i_vdd_avg           =  -6.73665e-07 from=  1.00000e-08 to=  3.30004e-07
power_avg_uw        =  1.25334e+00


Total analysis time (seconds) = 0.602363

Total elapsed time (seconds) = 0.671 

Total DRAM available = 16384.000 MB.
DRAM currently available =  181.969 MB.
Maximum ngspice program size =   17.406 MB.
Current ngspice program size =   17.406 MB.

