
Note: No compatibility mode selected!


Circuit: GF180MCU library cell xor2_1 A1_to_Z__A2=0

Doing analysis at TEMP = 115.588840 and TNOM = 27.000000

Using SPARSE 1.3 as Direct Linear Solver

Initial Transient Solution
--------------------------

Node                                   Voltage
----                                   -------
vdd                                    1.68074
a1                                           0
a2                                           0
xu1.i                                  1.68074
z                                   7.1532e-08
xu1.net_0                          3.15836e-08
xu1.net_2                              1.68074
xu1.net_1                             0.663271
vfix_a2#branch                               0
vin#branch                                   0
vdd#branch                        -1.71503e-11

 Reference value :  5.05358e-08
 Reference value :  1.22084e-07
 Reference value :  1.92926e-07
 Reference value :  2.70464e-07
 Reference value :  3.34974e-07
No. of Data Rows : 68034

  Measurements for Transient Analysis

tplh                =  2.45778e-08 targ=  4.89745e-08 trig=  2.43967e-08
tphl                =  6.61243e-09 targ=  1.01802e-07 trig=  9.51900e-08
i_vdd_avg           =  -1.72650e-06 from=  1.00000e-08 to=  3.30004e-07
power_avg_uw        =  2.90180e+00


Total analysis time (seconds) = 1.275

Total elapsed time (seconds) = 1.356 

Total DRAM available = 16384.000 MB.
DRAM currently available =  148.156 MB.
Maximum ngspice program size =   17.859 MB.
Current ngspice program size =   17.859 MB.

