
Note: No compatibility mode selected!


Circuit: GF180MCU library cell mux2_1 I0_to_Z__I1=0,S=0

Doing analysis at TEMP = 66.333978 and TNOM = 27.000000

Using SPARSE 1.3 as Direct Linear Solver

Initial Transient Solution
--------------------------

Node                                   Voltage
----                                   -------
vdd                                    1.70967
i0                                           0
i1                                           0
s                                            0
xu1.int04                              1.70967
z                                  1.71968e-08
xu1.net_1                            0.0239145
xu1.net_3                              1.18941
xu1.sel1_n                             1.70967
xu1.net_0                              1.70967
xu1.net_2                              1.70967
vfix_s#branch                                0
vfix_i1#branch                               0
vin#branch                                   0
vdd#branch                        -9.88331e-12

 Reference value :  3.90518e-08
 Reference value :  1.00162e-07
 Reference value :  1.60506e-07
 Reference value :  2.18117e-07
 Reference value :  2.74846e-07
 Reference value :  3.29861e-07
No. of Data Rows : 68032

  Measurements for Transient Analysis

tplh                =  2.07500e-09 targ=  2.84946e-08 trig=  2.64196e-08
tphl                =  3.43910e-09 targ=  1.04698e-07 trig=  1.01259e-07
i_vdd_avg           =  -1.39084e-07 from=  1.00000e-08 to=  3.30001e-07
power_avg_uw        =  2.37788e-01


Total analysis time (seconds) = 1.55904

Total elapsed time (seconds) = 1.637 

Total DRAM available = 16384.000 MB.
DRAM currently available =  171.375 MB.
Maximum ngspice program size =   18.562 MB.
Current ngspice program size =   18.562 MB.

