
Note: No compatibility mode selected!


Circuit: GF180MCU library cell nand2_1 A1_to_ZN__A2=1

Doing analysis at TEMP = 53.409985 and TNOM = 27.000000

Using SPARSE 1.3 as Direct Linear Solver

Initial Transient Solution
--------------------------

Node                                   Voltage
----                                   -------
vdd                                    1.94672
a1                                           0
a2                                     1.94672
xu1.net_0                          1.14026e-10
zn                                     1.94672
vfix_a2#branch                               0
vin#branch                                   0
vdd#branch                        -1.97158e-12

 Reference value :  1.00301e-07
 Reference value :  2.53026e-07
No. of Data Rows : 68034

  Measurements for Transient Analysis

tphl                =  6.88698e-09 targ=  3.34210e-08 trig=  2.65341e-08
tplh                =  9.78234e-09 targ=  1.11385e-07 trig=  1.01602e-07
i_vdd_avg           =  -1.95493e-06 from=  1.00000e-08 to=  3.30004e-07
power_avg_uw        =  3.80570e+00


Total analysis time (seconds) = 0.600045

Total elapsed time (seconds) = 0.683 

Total DRAM available = 16384.000 MB.
DRAM currently available =  159.484 MB.
Maximum ngspice program size =   17.078 MB.
Current ngspice program size =   17.078 MB.

