
Note: No compatibility mode selected!


Circuit: GF180MCU library cell aoi21_4 A1_to_ZN__A2=1,B=0

Doing analysis at TEMP = 55.943588 and TNOM = 27.000000

Using SPARSE 1.3 as Direct Linear Solver

Initial Transient Solution
--------------------------

Node                                   Voltage
----                                   -------
vdd                                    1.75168
a1                                           0
a2                                     1.75168
b                                            0
xu1.net_0_0                        1.50758e-10
zn                                     1.75168
xu1.net_0_1                        1.50758e-10
xu1.net_0_2                        1.50758e-10
xu1.net_0_3                        1.50758e-10
xu1.net_1                              1.75168
vfix_b#branch                                0
vfix_a2#branch                               0
vin#branch                                   0
vdd#branch                        -1.42475e-11

 Reference value :  2.03564e-08
 Reference value :  4.91028e-08
 Reference value :  7.81228e-08
 Reference value :  1.09078e-07
 Reference value :  1.38423e-07
 Reference value :  1.67723e-07
 Reference value :  1.98773e-07
 Reference value :  2.28103e-07
 Reference value :  2.57628e-07
 Reference value :  2.85078e-07
 Reference value :  3.15513e-07
No. of Data Rows : 68032

  Measurements for Transient Analysis

tphl                =  3.89302e-09 targ=  3.10857e-08 trig=  2.71927e-08
tplh                =  8.71480e-09 targ=  1.12293e-07 trig=  1.03578e-07
i_vdd_avg           =  -2.25364e-06 from=  1.00000e-08 to=  3.30003e-07
power_avg_uw        =  3.94766e+00


Total analysis time (seconds) = 3.182

Total elapsed time (seconds) = 3.262 

Total DRAM available = 16384.000 MB.
DRAM currently available =  151.875 MB.
Maximum ngspice program size =   16.578 MB.
Current ngspice program size =   16.578 MB.

