
Note: No compatibility mode selected!


Circuit: GF180MCU library cell xor2_1 A1_to_Z__A2=0

Doing analysis at TEMP = 80.722526 and TNOM = 27.000000

Using SPARSE 1.3 as Direct Linear Solver

Initial Transient Solution
--------------------------

Node                                   Voltage
----                                   -------
vdd                                    1.67837
a1                                           0
a2                                           0
xu1.i                                  1.67837
z                                  6.41205e-08
xu1.net_0                          1.53867e-08
xu1.net_2                              1.67837
xu1.net_1                             0.722237
vfix_a2#branch                               0
vin#branch                                   0
vdd#branch                        -1.07705e-11

 Reference value :  4.55054e-08
 Reference value :  1.11675e-07
 Reference value :  1.76638e-07
 Reference value :  2.41425e-07
 Reference value :  3.01163e-07
No. of Data Rows : 68034

  Measurements for Transient Analysis

tplh                =  2.03419e-08 targ=  4.94434e-08 trig=  2.91015e-08
tphl                =  7.98770e-09 targ=  1.17292e-07 trig=  1.09304e-07
i_vdd_avg           =  -1.37584e-06 from=  1.00000e-08 to=  3.30003e-07
power_avg_uw        =  2.30917e+00


Total analysis time (seconds) = 1.5143

Total elapsed time (seconds) = 1.592 

Total DRAM available = 16384.000 MB.
DRAM currently available =  132.969 MB.
Maximum ngspice program size =   17.344 MB.
Current ngspice program size =   17.344 MB.

