
Note: No compatibility mode selected!


Circuit: GF180MCU library cell oai21_1 A1_to_ZN__A2=0,B=1

Doing analysis at TEMP = -10.726485 and TNOM = 27.000000

Using SPARSE 1.3 as Direct Linear Solver

Initial Transient Solution
--------------------------

Node                                   Voltage
----                                   -------
vdd                                    1.78303
a1                                           0
a2                                           0
b                                      1.78303
zn                                     1.78303
xu1.net_0                          4.22398e-13
xu1.net_1                              1.78303
vfix_b#branch                                0
vfix_a2#branch                               0
vin#branch                                   0
vdd#branch                        -3.58611e-12

 Reference value :  7.09747e-08
 Reference value :  1.77142e-07
 Reference value :  2.78007e-07
No. of Data Rows : 68030

  Measurements for Transient Analysis

tphl                =  4.62478e-09 targ=  3.34884e-08 trig=  2.88636e-08
tplh                =  9.21364e-09 targ=  1.17804e-07 trig=  1.08591e-07
i_vdd_avg           =  -5.91256e-07 from=  1.00000e-08 to=  3.30002e-07
power_avg_uw        =  1.05423e+00


Total analysis time (seconds) = 0.861519

Total elapsed time (seconds) = 0.938 

Total DRAM available = 16384.000 MB.
DRAM currently available =  177.000 MB.
Maximum ngspice program size =   17.656 MB.
Current ngspice program size =   17.656 MB.

