
Note: No compatibility mode selected!


Circuit: GF180MCU library cell oai21_4 A1_to_ZN__A2=0,B=1

Doing analysis at TEMP = 122.515940 and TNOM = 27.000000

Using SPARSE 1.3 as Direct Linear Solver

Initial Transient Solution
--------------------------

Node                                   Voltage
----                                   -------
vdd                                    1.76123
a1                                           0
a2                                           0
b                                      1.76123
zn                                     1.76123
xu1.net_0                          2.38231e-08
xu1.net_1_0                            1.76123
xu1.net_1_1                            1.76123
xu1.net_1_2                            1.76123
xu1.net_1_3                            1.76123
vfix_b#branch                                0
vfix_a2#branch                               0
vin#branch                                   0
vdd#branch                         -2.3252e-11

 Reference value :  2.15814e-08
 Reference value :  5.27567e-08
 Reference value :  8.27067e-08
 Reference value :  1.12471e-07
 Reference value :  1.43311e-07
 Reference value :  1.73626e-07
 Reference value :  2.06072e-07
 Reference value :  2.37077e-07
 Reference value :  2.66392e-07
 Reference value :  2.98186e-07
 Reference value :  3.30101e-07
No. of Data Rows : 68032

  Measurements for Transient Analysis

tphl                =  8.61390e-10 targ=  2.81510e-08 trig=  2.72896e-08
tplh                =  2.14309e-09 targ=  1.06012e-07 trig=  1.03869e-07
i_vdd_avg           =  -1.65481e-07 from=  1.00000e-08 to=  3.30001e-07
power_avg_uw        =  2.91451e-01


Total analysis time (seconds) = 2.9554

Total elapsed time (seconds) = 3.046 

Total DRAM available = 16384.000 MB.
DRAM currently available =  171.375 MB.
Maximum ngspice program size =   19.312 MB.
Current ngspice program size =   19.312 MB.

