
Note: No compatibility mode selected!


Circuit: GF180MCU library cell mux2_4 I0_to_Z__I1=0,S=0

Doing analysis at TEMP = -10.321908 and TNOM = 27.000000

Using SPARSE 1.3 as Direct Linear Solver

Initial Transient Solution
--------------------------

Node                                   Voltage
----                                   -------
vdd                                    1.90926
i0                                           0
i1                                           0
s                                            0
xu1.int04                              1.90926
z                                   1.2987e-08
xu1.net_1                          1.14012e-05
xu1.net_3                              1.12132
xu1.sel1_n                             1.90926
xu1.net_0                              1.90926
xu1.net_2                              1.90926
vfix_s#branch                                0
vfix_i1#branch                               0
vin#branch                                   0
vdd#branch                        -1.60178e-11

 Reference value :  2.85375e-08
 Reference value :  6.63957e-08
 Reference value :  1.06881e-07
 Reference value :  1.45189e-07
 Reference value :  1.82954e-07
 Reference value :  2.22521e-07
 Reference value :  2.60251e-07
 Reference value :  2.96884e-07
 Reference value :  3.34169e-07
No. of Data Rows : 68034

  Measurements for Transient Analysis

tplh                =  3.76358e-09 targ=  3.15077e-08 trig=  2.77441e-08
tphl                =  4.71863e-09 targ=  1.09951e-07 trig=  1.05232e-07
i_vdd_avg           =  -1.72199e-06 from=  1.00000e-08 to=  3.30004e-07
power_avg_uw        =  3.28773e+00


Total analysis time (seconds) = 2.37513

Total elapsed time (seconds) = 2.445 

Total DRAM available = 16384.000 MB.
DRAM currently available =  151.875 MB.
Maximum ngspice program size =   14.812 MB.
Current ngspice program size =   14.812 MB.

