
Note: No compatibility mode selected!


Circuit: GF180MCU library cell inv_1 I_to_ZN

Doing analysis at TEMP = 119.743800 and TNOM = 27.000000

Using SPARSE 1.3 as Direct Linear Solver

Initial Transient Solution
--------------------------

Node                                   Voltage
----                                   -------
vdd                                    1.64103
i                                            0
zn                                     1.64103
vin#branch                                   0
vdd#branch                        -2.58643e-12

 Reference value :  1.68624e-07
No. of Data Rows : 68032

  Measurements for Transient Analysis

tphl                =  5.72592e-09 targ=  3.22563e-08 trig=  2.65303e-08
tplh                =  1.28825e-08 targ=  1.14474e-07 trig=  1.01591e-07
i_vdd_avg           =  -1.57671e-06 from=  1.00000e-08 to=  3.30004e-07
power_avg_uw        =  2.58742e+00


Total analysis time (seconds) = 0.393872

Total elapsed time (seconds) = 0.455 

Total DRAM available = 16384.000 MB.
DRAM currently available =  268.719 MB.
Maximum ngspice program size =   15.688 MB.
Current ngspice program size =   15.688 MB.

