
Note: No compatibility mode selected!


Circuit: GF180MCU library cell inv_1 I_to_ZN

Doing analysis at TEMP = 57.336013 and TNOM = 27.000000

Using SPARSE 1.3 as Direct Linear Solver

Initial Transient Solution
--------------------------

Node                                   Voltage
----                                   -------
vdd                                    1.93065
i                                            0
zn                                     1.93065
vin#branch                                   0
vdd#branch                        -1.96058e-12

 Reference value :  1.71512e-07
No. of Data Rows : 68032

  Measurements for Transient Analysis

tphl                =  2.24769e-09 targ=  3.14275e-08 trig=  2.91798e-08
tplh                =  4.18264e-09 targ=  1.13722e-07 trig=  1.09539e-07
i_vdd_avg           =  -2.91977e-07 from=  1.00000e-08 to=  3.30002e-07
power_avg_uw        =  5.63705e-01


Total analysis time (seconds) = 0.363166

Total elapsed time (seconds) = 0.443 

Total DRAM available = 16384.000 MB.
DRAM currently available =  181.234 MB.
Maximum ngspice program size =   16.625 MB.
Current ngspice program size =   16.625 MB.

