
Note: No compatibility mode selected!


Circuit: GF180MCU library cell aoi21_1 A1_to_ZN__A2=1,B=0

Doing analysis at TEMP = 12.745441 and TNOM = 27.000000

Using SPARSE 1.3 as Direct Linear Solver

Initial Transient Solution
--------------------------

Node                                   Voltage
----                                   -------
vdd                                    1.78458
a1                                           0
a2                                     1.78458
b                                            0
xu1.net_0                          2.99042e-12
zn                                     1.78458
xu1.net_1                              1.78458
vfix_b#branch                                0
vfix_a2#branch                               0
vin#branch                                   0
vdd#branch                        -3.59011e-12

 Reference value :  8.06054e-08
 Reference value :  1.86023e-07
 Reference value :  2.90268e-07
No. of Data Rows : 68034

  Measurements for Transient Analysis

tphl                =  9.94037e-09 targ=  3.97843e-08 trig=  2.98440e-08
tplh                =  2.44193e-08 targ=  1.35951e-07 trig=  1.11532e-07
i_vdd_avg           =  -1.92419e-06 from=  1.00000e-08 to=  3.30003e-07
power_avg_uw        =  3.43386e+00


Total analysis time (seconds) = 0.865728

Total elapsed time (seconds) = 0.932 

Total DRAM available = 16384.000 MB.
DRAM currently available =  148.156 MB.
Maximum ngspice program size =   15.484 MB.
Current ngspice program size =   15.484 MB.

