
Note: No compatibility mode selected!


Circuit: GF180MCU library cell mux2_4 I0_to_Z__I1=0,S=0

Doing analysis at TEMP = 34.427050 and TNOM = 27.000000

Using SPARSE 1.3 as Direct Linear Solver

Initial Transient Solution
--------------------------

Node                                   Voltage
----                                   -------
vdd                                    1.79132
i0                                           0
i1                                           0
s                                            0
xu1.int04                              1.79132
z                                   1.5402e-08
xu1.net_1                           0.00103415
xu1.net_3                              1.10629
xu1.sel1_n                             1.79132
xu1.net_0                              1.79132
xu1.net_2                              1.79132
vfix_s#branch                                0
vfix_i1#branch                               0
vin#branch                                   0
vdd#branch                        -1.51428e-11

 Reference value :  2.67904e-08
 Reference value :  6.68654e-08
 Reference value :  1.05253e-07
 Reference value :  1.43428e-07
 Reference value :  1.84683e-07
 Reference value :  2.23395e-07
 Reference value :  2.62838e-07
 Reference value :  3.01853e-07
 Reference value :  3.38708e-07
No. of Data Rows : 68034

  Measurements for Transient Analysis

tplh                =  2.58633e-09 targ=  2.78278e-08 trig=  2.52415e-08
tphl                =  3.67262e-09 targ=  1.01397e-07 trig=  9.77244e-08
i_vdd_avg           =  -9.07302e-07 from=  1.00000e-08 to=  3.30003e-07
power_avg_uw        =  1.62527e+00


Total analysis time (seconds) = 2.32255

Total elapsed time (seconds) = 2.399 

Total DRAM available = 16384.000 MB.
DRAM currently available =  157.625 MB.
Maximum ngspice program size =   17.688 MB.
Current ngspice program size =   17.688 MB.

