
Note: No compatibility mode selected!


Circuit: GF180MCU library cell nand3_4 A1_to_ZN__A2=1,A3=1

Doing analysis at TEMP = -34.253843 and TNOM = 27.000000

Using SPARSE 1.3 as Direct Linear Solver

Initial Transient Solution
--------------------------

Node                                   Voltage
----                                   -------
vdd                                    1.77145
a1                                           0
a2                                     1.77145
a3                                     1.77145
xu1.net_1_3                        8.88237e-15
xu1.net_0                          1.77837e-14
xu1.net_1_2                        8.89856e-15
xu1.net_1_1                        8.88237e-15
xu1.net_1_0                        8.87633e-15
xu1.net_0_0                        1.77527e-14
zn                                     1.77145
vfix_a3#branch                               0
vfix_a2#branch                               0
vin#branch                                   0
vdd#branch                        -7.12579e-12

 Reference value :  2.67236e-08
 Reference value :  5.73786e-08
 Reference value :  8.77686e-08
 Reference value :  1.19785e-07
 Reference value :  1.51005e-07
 Reference value :  1.85363e-07
 Reference value :  2.17564e-07
 Reference value :  2.48489e-07
 Reference value :  2.78250e-07
 Reference value :  3.10125e-07
No. of Data Rows : 68032

  Measurements for Transient Analysis

tphl                =  8.50311e-10 targ=  2.60909e-08 trig=  2.52405e-08
tplh                =  1.18199e-09 targ=  9.89036e-08 trig=  9.77216e-08
i_vdd_avg           =  -2.00818e-07 from=  1.00000e-08 to=  3.30005e-07
power_avg_uw        =  3.55738e-01


Total analysis time (seconds) = 2.87181

Total elapsed time (seconds) = 2.950 

Total DRAM available = 16384.000 MB.
DRAM currently available =  159.484 MB.
Maximum ngspice program size =   17.906 MB.
Current ngspice program size =   17.906 MB.

