
Note: No compatibility mode selected!


Circuit: GF180MCU library cell aoi21_1 A1_to_ZN__A2=1,B=0

Doing analysis at TEMP = 24.421016 and TNOM = 27.000000

Using SPARSE 1.3 as Direct Linear Solver

Initial Transient Solution
--------------------------

Node                                   Voltage
----                                   -------
vdd                                    1.82243
a1                                           0
a2                                     1.82243
b                                            0
xu1.net_0                          9.42976e-12
zn                                     1.82243
xu1.net_1                              1.82243
vfix_b#branch                                0
vfix_a2#branch                               0
vin#branch                                   0
vdd#branch                        -3.66777e-12

 Reference value :  7.22794e-08
 Reference value :  1.70546e-07
 Reference value :  2.75996e-07
No. of Data Rows : 68030

  Measurements for Transient Analysis

tphl                =  3.55592e-09 targ=  2.83469e-08 trig=  2.47910e-08
tplh                =  9.76330e-09 targ=  1.06136e-07 trig=  9.63729e-08
i_vdd_avg           =  -9.27851e-07 from=  1.00000e-08 to=  3.30001e-07
power_avg_uw        =  1.69094e+00


Total analysis time (seconds) = 0.91563

Total elapsed time (seconds) = 0.994 

Total DRAM available = 16384.000 MB.
DRAM currently available =  132.969 MB.
Maximum ngspice program size =   17.078 MB.
Current ngspice program size =   17.078 MB.

