
Note: No compatibility mode selected!


Circuit: INV seed characterization sample 6000017

Doing analysis at TEMP = 82.158300 and TNOM = 27.000000

Using SPARSE 1.3 as Direct Linear Solver

Initial Transient Solution
--------------------------

Node                                   Voltage
----                                   -------
vdd                                    1.70468
in                                           0
out                                    1.70468
vin#branch                                   0
vdd#branch                        -3.03053e-10

 Reference value :  4.33859e-08
 Reference value :  1.13449e-07
No. of Data Rows : 60041

  Measurements for Transient Analysis

tphl                =  1.64648e-10 targ=  2.27809e-09 trig=  2.11344e-09
tplh                =  2.08420e-10 targ=  2.25487e-08 trig=  2.23403e-08
i_vdd_avg           =  -3.75919e-06 from=  5.00000e-09 to=  1.10001e-07
power_avg_uw        =  6.40822e+00


Total analysis time (seconds) = 0.39847

Total elapsed time (seconds) = 0.558 

Total DRAM available = 16384.000 MB.
DRAM currently available =  128.359 MB.
Maximum ngspice program size =   14.844 MB.
Current ngspice program size =   14.844 MB.

