
Note: No compatibility mode selected!


Circuit: XOR2 seed characterization sample 6000074

Doing analysis at TEMP = 65.422000 and TNOM = 27.000000

Using SPARSE 1.3 as Direct Linear Solver

Initial Transient Solution
--------------------------

Node                                   Voltage
----                                   -------
vdd                                    1.92696
in                                           0
b                                      1.92696
abar                                   1.92696
bbar                                 1.112e-08
out                                    1.92696
vb#branch                                    0
vin#branch                         2.99857e-10
vdd#branch                        -5.42774e-10

 Reference value :  1.46605e-08
 Reference value :  4.07880e-08
 Reference value :  7.11380e-08
 Reference value :  1.05056e-07
No. of Data Rows : 60044

  Measurements for Transient Analysis

tphl                =  1.83375e-10 targ=  2.36213e-09 trig=  2.17875e-09
tplh                =  1.83863e-10 targ=  2.27201e-08 trig=  2.25363e-08
i_vdd_avg           =  -4.98037e-06 from=  5.00000e-09 to=  1.10000e-07
power_avg_uw        =  9.59698e+00


Total analysis time (seconds) = 0.989097

Total elapsed time (seconds) = 1.099 

Total DRAM available = 16384.000 MB.
DRAM currently available =  126.516 MB.
Maximum ngspice program size =   12.797 MB.
Current ngspice program size =   12.016 MB.

