
Note: No compatibility mode selected!


Circuit: XOR2 seed characterization sample 6000081

Doing analysis at TEMP = 83.532000 and TNOM = 27.000000

Using SPARSE 1.3 as Direct Linear Solver

Initial Transient Solution
--------------------------

Node                                   Voltage
----                                   -------
vdd                                    1.88639
in                                           0
b                                      1.88639
abar                                   1.88639
bbar                                2.8511e-08
out                                    1.88639
vb#branch                                    0
vin#branch                         7.32972e-10
vdd#branch                        -1.31557e-09

 Reference value :  1.45413e-08
 Reference value :  4.02335e-08
 Reference value :  7.02535e-08
 Reference value :  1.04366e-07
No. of Data Rows : 60044

  Measurements for Transient Analysis

tphl                =  1.32524e-10 targ=  2.17665e-09 trig=  2.04413e-09
tplh                =  1.49182e-10 targ=  2.22816e-08 trig=  2.21324e-08
i_vdd_avg           =  -4.35363e-06 from=  5.00000e-09 to=  1.10002e-07
power_avg_uw        =  8.21264e+00


Total analysis time (seconds) = 0.995142

Total elapsed time (seconds) = 1.103 

Total DRAM available = 16384.000 MB.
DRAM currently available =  130.156 MB.
Maximum ngspice program size =   12.609 MB.
Current ngspice program size =   12.109 MB.

