
Note: No compatibility mode selected!


Circuit: NAND2 seed characterization sample 6000028

Doing analysis at TEMP = -1.959600 and TNOM = 27.000000

Using SPARSE 1.3 as Direct Linear Solver

Initial Transient Solution
--------------------------

Node                                   Voltage
----                                   -------
vdd                                      1.745
in                                           0
out                                      1.745
nmid                                 0.0402744
vin#branch                                   0
vdd#branch                        -1.97078e-12

 Reference value :  3.15893e-08
 Reference value :  7.60853e-08
 Reference value :  1.17327e-07
No. of Data Rows : 60044

  Measurements for Transient Analysis

tphl                =  2.85772e-10 targ=  2.44784e-09 trig=  2.16207e-09
tplh                =  1.45034e-10 targ=  2.26312e-08 trig=  2.24862e-08
i_vdd_avg           =  -4.34503e-06 from=  5.00000e-09 to=  1.10001e-07
power_avg_uw        =  7.58208e+00


Total analysis time (seconds) = 0.666114

Total elapsed time (seconds) = 0.810 

Total DRAM available = 16384.000 MB.
DRAM currently available =  128.359 MB.
Maximum ngspice program size =   14.203 MB.
Current ngspice program size =   14.203 MB.

