
Note: No compatibility mode selected!


Circuit: NAND2 seed characterization sample 6000030

Doing analysis at TEMP = -17.521700 and TNOM = 27.000000

Using SPARSE 1.3 as Direct Linear Solver

Initial Transient Solution
--------------------------

Node                                   Voltage
----                                   -------
vdd                                    1.84687
in                                           0
out                                    1.84687
nmid                                 0.0308114
vin#branch                                   0
vdd#branch                         -1.9645e-12

 Reference value :  3.11834e-08
 Reference value :  7.61394e-08
 Reference value :  1.16821e-07
No. of Data Rows : 60044

  Measurements for Transient Analysis

tphl                =  1.49848e-10 targ=  2.22396e-09 trig=  2.07411e-09
tplh                =  7.45628e-11 targ=  2.22969e-08 trig=  2.22223e-08
i_vdd_avg           =  -3.59756e-06 from=  5.00000e-09 to=  1.10001e-07
power_avg_uw        =  6.64423e+00


Total analysis time (seconds) = 0.673319

Total elapsed time (seconds) = 0.817 

Total DRAM available = 16384.000 MB.
DRAM currently available =  128.359 MB.
Maximum ngspice program size =   14.500 MB.
Current ngspice program size =   14.500 MB.

