
Note: No compatibility mode selected!


Circuit: GF180MCU library cell nor2_1 A1_to_ZN__A2=0

Doing analysis at TEMP = 77.713008 and TNOM = 27.000000

Using SPARSE 1.3 as Direct Linear Solver

Initial Transient Solution
--------------------------

Node                                   Voltage
----                                   -------
vdd                                     1.8477
a1                                           0
a2                                           0
zn                                      1.8477
xu1.net_0                               1.8477
vfix_a2#branch                               0
vin#branch                                   0
vdd#branch                        -6.62264e-12

 Reference value :  1.06821e-07
 Reference value :  2.77990e-07
No. of Data Rows : 68034

  Measurements for Transient Analysis

tphl                =  5.96716e-09 targ=  3.52265e-08 trig=  2.92594e-08
tplh                =  1.48754e-08 targ=  1.24653e-07 trig=  1.09778e-07
i_vdd_avg           =  -2.04407e-06 from=  1.00000e-08 to=  3.30005e-07
power_avg_uw        =  3.77682e+00


Total analysis time (seconds) = 0.589479

Total elapsed time (seconds) = 0.640 

Total DRAM available = 16384.000 MB.
DRAM currently available =  143.422 MB.
Maximum ngspice program size =   13.641 MB.
Current ngspice program size =   13.641 MB.

