
Note: No compatibility mode selected!


Circuit: GF180MCU library cell aoi21_1 A1_to_ZN__A2=1,B=0

Doing analysis at TEMP = 83.842860 and TNOM = 27.000000

Using SPARSE 1.3 as Direct Linear Solver

Initial Transient Solution
--------------------------

Node                                   Voltage
----                                   -------
vdd                                    1.74408
a1                                           0
a2                                     1.74408
b                                            0
xu1.net_0                          1.31864e-08
zn                                     1.74408
xu1.net_1                              1.74408
vfix_b#branch                                0
vfix_a2#branch                               0
vin#branch                                   0
vdd#branch                        -7.66292e-12

 Reference value :  8.59656e-08
 Reference value :  2.02736e-07
 Reference value :  3.15834e-07
No. of Data Rows : 68034

  Measurements for Transient Analysis

tphl                =  4.25429e-09 targ=  2.83658e-08 trig=  2.41116e-08
tplh                =  1.15940e-08 targ=  1.05929e-07 trig=  9.43347e-08
i_vdd_avg           =  -1.58504e-06 from=  1.00000e-08 to=  3.30004e-07
power_avg_uw        =  2.76444e+00


Total analysis time (seconds) = 1.95662

Total elapsed time (seconds) = 2.011 

Total DRAM available = 16384.000 MB.
DRAM currently available =  110.203 MB.
Maximum ngspice program size =   15.875 MB.
Current ngspice program size =   15.875 MB.

