
Note: No compatibility mode selected!


Circuit: GF180MCU library cell nand3_4 A1_to_ZN__A2=1,A3=1

Doing analysis at TEMP = 2.141467 and TNOM = 27.000000

Using SPARSE 1.3 as Direct Linear Solver

Initial Transient Solution
--------------------------

Node                                   Voltage
----                                   -------
vdd                                    1.70763
a1                                           0
a2                                     1.70763
a3                                     1.70763
xu1.net_1_3                        2.28582e-11
xu1.net_0                          4.57165e-11
xu1.net_1_2                        2.28583e-11
xu1.net_1_1                        2.28582e-11
xu1.net_1_0                        2.28582e-11
xu1.net_0_0                        4.57165e-11
zn                                     1.70763
vfix_a3#branch                               0
vfix_a2#branch                               0
vin#branch                                   0
vdd#branch                        -6.88661e-12

 Reference value :  2.56225e-08
 Reference value :  6.03336e-08
 Reference value :  9.16336e-08
 Reference value :  1.24890e-07
 Reference value :  1.56730e-07
 Reference value :  1.90934e-07
 Reference value :  2.24634e-07
 Reference value :  2.58344e-07
 Reference value :  2.91595e-07
 Reference value :  3.25660e-07
No. of Data Rows : 68032

  Measurements for Transient Analysis

tphl                =  3.06954e-09 targ=  2.96801e-08 trig=  2.66105e-08
tplh                =  3.90954e-09 targ=  1.05741e-07 trig=  1.01832e-07
i_vdd_avg           =  -2.13519e-06 from=  1.00000e-08 to=  3.30005e-07
power_avg_uw        =  3.64610e+00


Total analysis time (seconds) = 6.00261

Total elapsed time (seconds) = 6.072 

Total DRAM available = 16384.000 MB.
DRAM currently available =  130.469 MB.
Maximum ngspice program size =   17.875 MB.
Current ngspice program size =   17.875 MB.

