
Note: No compatibility mode selected!


Circuit: GF180MCU library cell nand2_4 A1_to_ZN__A2=1

Doing analysis at TEMP = 70.237358 and TNOM = 27.000000

Using SPARSE 1.3 as Direct Linear Solver

Initial Transient Solution
--------------------------

Node                                   Voltage
----                                   -------
vdd                                    1.62373
a1                                           0
a2                                     1.62373
xu1.net_0_0                        5.83722e-09
zn                                     1.62373
xu1.net_0_1                        5.83722e-09
xu1.net_0_2                        5.83722e-09
xu1.net_0_3                        5.83722e-09
vfix_a2#branch                               0
vin#branch                                   0
vdd#branch                        -9.72765e-12

 Reference value :  3.30657e-08
 Reference value :  9.12507e-08
 Reference value :  1.43449e-07
 Reference value :  1.98176e-07
 Reference value :  2.45411e-07
 Reference value :  3.02494e-07
No. of Data Rows : 68034

  Measurements for Transient Analysis

tphl                =  1.32623e-09 targ=  2.95328e-08 trig=  2.82066e-08
tplh                =  2.55939e-09 targ=  1.09179e-07 trig=  1.06620e-07
i_vdd_avg           =  -4.25278e-07 from=  1.00000e-08 to=  3.30004e-07
power_avg_uw        =  6.90535e-01


Total analysis time (seconds) = 1.80833

Total elapsed time (seconds) = 1.873 

Total DRAM available = 16384.000 MB.
DRAM currently available =  122.734 MB.
Maximum ngspice program size =   13.234 MB.
Current ngspice program size =   13.234 MB.

