
Note: No compatibility mode selected!


Circuit: GF180MCU library cell oai21_1 A1_to_ZN__A2=0,B=1

Doing analysis at TEMP = 115.912030 and TNOM = 27.000000

Using SPARSE 1.3 as Direct Linear Solver

Initial Transient Solution
--------------------------

Node                                   Voltage
----                                   -------
vdd                                    1.91151
a1                                           0
a2                                           0
b                                      1.91151
zn                                     1.91151
xu1.net_0                          1.50571e-07
xu1.net_1                              1.91151
vfix_b#branch                                0
vfix_a2#branch                               0
vin#branch                                   0
vdd#branch                        -2.65598e-11

 Reference value :  1.13097e-07
 Reference value :  2.31197e-07
No. of Data Rows : 68032

  Measurements for Transient Analysis

tphl                =  4.93995e-09 targ=  2.97924e-08 trig=  2.48525e-08
tplh                =  1.22829e-08 targ=  1.08840e-07 trig=  9.65574e-08
i_vdd_avg           =  -2.09641e-06 from=  1.00000e-08 to=  3.30002e-07
power_avg_uw        =  4.00731e+00


Total analysis time (seconds) = 0.777191

Total elapsed time (seconds) = 0.848 

Total DRAM available = 16384.000 MB.
DRAM currently available =  143.422 MB.
Maximum ngspice program size =   16.375 MB.
Current ngspice program size =   16.375 MB.

