
Note: No compatibility mode selected!


Circuit: GF180MCU library cell mux2_1 I0_to_Z__I1=0,S=0

Doing analysis at TEMP = 14.298636 and TNOM = 27.000000

Using SPARSE 1.3 as Direct Linear Solver

Initial Transient Solution
--------------------------

Node                                   Voltage
----                                   -------
vdd                                    1.92703
i0                                           0
i1                                           0
s                                            0
xu1.int04                              1.92703
z                                  1.02031e-08
xu1.net_1                             0.015309
xu1.net_3                              1.37008
xu1.sel1_n                             1.92703
xu1.net_0                              1.92703
xu1.net_2                              1.92703
vfix_s#branch                                0
vfix_i1#branch                               0
vin#branch                                   0
vdd#branch                        -1.08082e-11

 Reference value :  5.63632e-08
 Reference value :  1.13138e-07
 Reference value :  1.78479e-07
 Reference value :  2.42463e-07
 Reference value :  3.00454e-07
No. of Data Rows : 68032

  Measurements for Transient Analysis

tplh                =  2.02121e-09 targ=  3.14791e-08 trig=  2.94578e-08
tphl                =  3.46085e-09 targ=  1.13834e-07 trig=  1.10374e-07
i_vdd_avg           =  -6.47032e-07 from=  1.00000e-08 to=  3.30004e-07
power_avg_uw        =  1.24685e+00


Total analysis time (seconds) = 3.34734

Total elapsed time (seconds) = 3.399 

Total DRAM available = 16384.000 MB.
DRAM currently available =  109.562 MB.
Maximum ngspice program size =   12.906 MB.
Current ngspice program size =   12.906 MB.

