
Note: No compatibility mode selected!


Circuit: GF180MCU library cell xor2_1 A1_to_Z__A2=0

Doing analysis at TEMP = 71.678759 and TNOM = 27.000000

Using SPARSE 1.3 as Direct Linear Solver

Initial Transient Solution
--------------------------

Node                                   Voltage
----                                   -------
vdd                                    1.82199
a1                                           0
a2                                           0
xu1.i                                  1.82199
z                                  4.51051e-08
xu1.net_0                          1.96619e-08
xu1.net_2                              1.82199
xu1.net_1                              0.67346
vfix_a2#branch                               0
vin#branch                                   0
vdd#branch                        -1.87033e-11

 Reference value :  5.49245e-08
 Reference value :  1.27346e-07
 Reference value :  1.98199e-07
 Reference value :  2.69939e-07
No. of Data Rows : 68030

  Measurements for Transient Analysis

tplh                =  6.92829e-09 targ=  3.65143e-08 trig=  2.95860e-08
tphl                =  4.37029e-09 targ=  1.15128e-07 trig=  1.10758e-07
i_vdd_avg           =  -1.12155e-06 from=  1.00000e-08 to=  3.30001e-07
power_avg_uw        =  2.04345e+00


Total analysis time (seconds) = 2.29065

Total elapsed time (seconds) = 2.347 

Total DRAM available = 16384.000 MB.
DRAM currently available =  137.391 MB.
Maximum ngspice program size =   13.281 MB.
Current ngspice program size =   13.281 MB.

