
Note: No compatibility mode selected!


Circuit: GF180MCU library cell mux2_1 I0_to_Z__I1=0,S=0

Doing analysis at TEMP = 65.437250 and TNOM = 27.000000

Using SPARSE 1.3 as Direct Linear Solver

Initial Transient Solution
--------------------------

Node                                   Voltage
----                                   -------
vdd                                    1.65392
i0                                           0
i1                                           0
s                                            0
xu1.int04                              1.65392
z                                  1.23306e-08
xu1.net_1                            0.0411975
xu1.net_3                              1.21603
xu1.sel1_n                             1.65392
xu1.net_0                              1.65392
xu1.net_2                              1.65392
vfix_s#branch                                0
vfix_i1#branch                               0
vin#branch                                   0
vdd#branch                        -1.44308e-11

 Reference value :  4.63684e-08
 Reference value :  1.12514e-07
 Reference value :  1.86873e-07
 Reference value :  2.56148e-07
 Reference value :  3.22459e-07
No. of Data Rows : 68032

  Measurements for Transient Analysis

tplh                =  9.71650e-09 targ=  3.82894e-08 trig=  2.85729e-08
tphl                =  6.76636e-09 targ=  1.14485e-07 trig=  1.07719e-07
i_vdd_avg           =  -2.19647e-06 from=  1.00000e-08 to=  3.30004e-07
power_avg_uw        =  3.63279e+00


Total analysis time (seconds) = 1.4653

Total elapsed time (seconds) = 1.561 

Total DRAM available = 16384.000 MB.
DRAM currently available =  138.828 MB.
Maximum ngspice program size =   19.297 MB.
Current ngspice program size =   19.297 MB.

