
Note: No compatibility mode selected!


Circuit: GF180MCU library cell nand3_4 A1_to_ZN__A2=1,A3=1

Doing analysis at TEMP = 84.518448 and TNOM = 27.000000

Using SPARSE 1.3 as Direct Linear Solver

Initial Transient Solution
--------------------------

Node                                   Voltage
----                                   -------
vdd                                    1.93729
a1                                           0
a2                                     1.93729
a3                                     1.93729
xu1.net_1_3                        1.31303e-08
xu1.net_0                          2.62606e-08
xu1.net_1_2                        1.31303e-08
xu1.net_1_1                        1.31303e-08
xu1.net_1_0                        1.31303e-08
xu1.net_0_0                        2.62606e-08
zn                                     1.93729
vfix_a3#branch                               0
vfix_a2#branch                               0
vin#branch                                   0
vdd#branch                        -1.64753e-11

 Reference value :  2.82125e-08
 Reference value :  6.12365e-08
 Reference value :  9.73365e-08
 Reference value :  1.34131e-07
 Reference value :  1.69301e-07
 Reference value :  2.04047e-07
 Reference value :  2.44057e-07
 Reference value :  2.82891e-07
 Reference value :  3.18026e-07
No. of Data Rows : 68032

  Measurements for Transient Analysis

tphl                =  4.69352e-10 targ=  2.90239e-08 trig=  2.85545e-08
tplh                =  1.59434e-09 targ=  1.09258e-07 trig=  1.07664e-07
i_vdd_avg           =  -3.82301e-07 from=  1.00000e-08 to=  3.30001e-07
power_avg_uw        =  7.40628e-01


Total analysis time (seconds) = 2.67961

Total elapsed time (seconds) = 2.743 

Total DRAM available = 16384.000 MB.
DRAM currently available =  131.000 MB.
Maximum ngspice program size =   17.984 MB.
Current ngspice program size =   17.984 MB.

