
Note: No compatibility mode selected!


Circuit: GF180MCU library cell mux2_1 I0_to_Z__I1=0,S=0

Doing analysis at TEMP = -13.025866 and TNOM = 27.000000

Using SPARSE 1.3 as Direct Linear Solver

Initial Transient Solution
--------------------------

Node                                   Voltage
----                                   -------
vdd                                    1.82858
i0                                           0
i1                                           0
s                                            0
xu1.int04                              1.82858
z                                  9.51673e-09
xu1.net_1                           0.00232484
xu1.net_3                               1.2458
xu1.sel1_n                             1.82858
xu1.net_0                              1.82858
xu1.net_2                              1.82858
vfix_s#branch                                0
vfix_i1#branch                               0
vin#branch                                   0
vdd#branch                        -9.97591e-12

 Reference value :  5.17920e-08
 Reference value :  1.13016e-07
 Reference value :  1.76526e-07
 Reference value :  2.37312e-07
 Reference value :  2.95676e-07
No. of Data Rows : 68032

  Measurements for Transient Analysis

tplh                =  3.10050e-09 targ=  2.86627e-08 trig=  2.55622e-08
tphl                =  2.67738e-09 targ=  1.01364e-07 trig=  9.86867e-08
i_vdd_avg           =  -9.34390e-07 from=  1.00000e-08 to=  3.30001e-07
power_avg_uw        =  1.70861e+00


Total analysis time (seconds) = 3.2791

Total elapsed time (seconds) = 3.340 

Total DRAM available = 16384.000 MB.
DRAM currently available =  124.406 MB.
Maximum ngspice program size =   14.641 MB.
Current ngspice program size =   14.641 MB.

