
Note: No compatibility mode selected!


Circuit: GF180MCU library cell mux2_4 I0_to_Z__I1=0,S=0

Doing analysis at TEMP = -32.151146 and TNOM = 27.000000

Using SPARSE 1.3 as Direct Linear Solver

Initial Transient Solution
--------------------------

Node                                   Voltage
----                                   -------
vdd                                    1.68932
i0                                           0
i1                                           0
s                                            0
xu1.int04                              1.68932
z                                  9.22293e-09
xu1.net_1                           2.9746e-05
xu1.net_3                              1.02165
xu1.sel1_n                             1.68932
xu1.net_0                              1.68932
xu1.net_2                              1.68932
vfix_s#branch                                0
vfix_i1#branch                               0
vin#branch                                   0
vdd#branch                        -1.42827e-11

 Reference value :  3.49919e-08
 Reference value :  8.74769e-08
 Reference value :  1.35346e-07
 Reference value :  1.80351e-07
 Reference value :  2.34777e-07
 Reference value :  2.80266e-07
 Reference value :  3.25451e-07
No. of Data Rows : 68032

  Measurements for Transient Analysis

tplh                =  3.00410e-09 targ=  2.86363e-08 trig=  2.56322e-08
tphl                =  3.22239e-09 targ=  1.02119e-07 trig=  9.88966e-08
i_vdd_avg           =  -2.10665e-06 from=  1.00000e-08 to=  3.30001e-07
power_avg_uw        =  3.55881e+00


Total analysis time (seconds) = 2.74629

Total elapsed time (seconds) = 2.827 

Total DRAM available = 16384.000 MB.
DRAM currently available =  129.797 MB.
Maximum ngspice program size =   19.312 MB.
Current ngspice program size =   19.312 MB.

