
Note: No compatibility mode selected!


Circuit: GF180MCU library cell inv_1 I_to_ZN

Doing analysis at TEMP = 91.112554 and TNOM = 27.000000

Using SPARSE 1.3 as Direct Linear Solver

Initial Transient Solution
--------------------------

Node                                   Voltage
----                                   -------
vdd                                    1.83446
i                                            0
zn                                     1.83446
vin#branch                                   0
vdd#branch                        -4.86434e-12

 Reference value :  2.24798e-07
No. of Data Rows : 68032

  Measurements for Transient Analysis

tphl                =  3.62643e-09 targ=  2.97644e-08 trig=  2.61380e-08
tplh                =  7.27818e-09 targ=  1.07692e-07 trig=  1.00414e-07
i_vdd_avg           =  -2.04388e-06 from=  1.00000e-08 to=  3.30004e-07
power_avg_uw        =  3.74943e+00


Total analysis time (seconds) = 0.585417

Total elapsed time (seconds) = 0.642 

Total DRAM available = 16384.000 MB.
DRAM currently available =  239.312 MB.
Maximum ngspice program size =   13.766 MB.
Current ngspice program size =   13.766 MB.

