
Note: No compatibility mode selected!


Circuit: GF180MCU library cell nand3_4 A1_to_ZN__A2=1,A3=1

Doing analysis at TEMP = 34.155004 and TNOM = 27.000000

Using SPARSE 1.3 as Direct Linear Solver

Initial Transient Solution
--------------------------

Node                                   Voltage
----                                   -------
vdd                                    1.66149
a1                                           0
a2                                     1.66149
a3                                     1.66149
xu1.net_1_3                        4.18443e-10
xu1.net_0                          8.36887e-10
xu1.net_1_2                        4.18443e-10
xu1.net_1_1                        4.18443e-10
xu1.net_1_0                        4.18443e-10
xu1.net_0_0                        8.36887e-10
zn                                     1.66149
vfix_a3#branch                               0
vfix_a2#branch                               0
vin#branch                                   0
vdd#branch                        -6.94491e-12

 Reference value :  2.09364e-08
 Reference value :  5.42365e-08
 Reference value :  9.14665e-08
 Reference value :  1.22475e-07
 Reference value :  1.60175e-07
 Reference value :  1.96096e-07
 Reference value :  2.32516e-07
 Reference value :  2.66755e-07
 Reference value :  3.04820e-07
 Reference value :  3.39835e-07
No. of Data Rows : 68032

  Measurements for Transient Analysis

tphl                =  2.30944e-09 targ=  2.73964e-08 trig=  2.50870e-08
tplh                =  2.82931e-09 targ=  1.00090e-07 trig=  9.72610e-08
i_vdd_avg           =  -1.78105e-06 from=  1.00000e-08 to=  3.30000e-07
power_avg_uw        =  2.95919e+00


Total analysis time (seconds) = 2.75291

Total elapsed time (seconds) = 2.854 

Total DRAM available = 16384.000 MB.
DRAM currently available =  128.750 MB.
Maximum ngspice program size =   17.422 MB.
Current ngspice program size =   17.422 MB.

