
Note: No compatibility mode selected!


Circuit: GF180MCU library cell nor2_1 A1_to_ZN__A2=0

Doing analysis at TEMP = 19.539775 and TNOM = 27.000000

Using SPARSE 1.3 as Direct Linear Solver

Initial Transient Solution
--------------------------

Node                                   Voltage
----                                   -------
vdd                                    1.90959
a1                                           0
a2                                           0
zn                                     1.90959
xu1.net_0                              1.90959
vfix_a2#branch                               0
vin#branch                                   0
vdd#branch                        -3.88814e-12

 Reference value :  1.18914e-07
 Reference value :  2.67054e-07
No. of Data Rows : 68032

  Measurements for Transient Analysis

tphl                =  2.13363e-09 targ=  2.74064e-08 trig=  2.52728e-08
tplh                =  5.84661e-09 targ=  1.03665e-07 trig=  9.78185e-08
i_vdd_avg           =  -1.03225e-06 from=  1.00000e-08 to=  3.30004e-07
power_avg_uw        =  1.97118e+00


Total analysis time (seconds) = 1.33436

Total elapsed time (seconds) = 1.390 

Total DRAM available = 16384.000 MB.
DRAM currently available =  109.562 MB.
Maximum ngspice program size =   17.406 MB.
Current ngspice program size =   17.406 MB.

