
Note: No compatibility mode selected!


Circuit: GF180MCU library cell inv_1 I_to_ZN

Doing analysis at TEMP = 107.422130 and TNOM = 27.000000

Using SPARSE 1.3 as Direct Linear Solver

Initial Transient Solution
--------------------------

Node                                   Voltage
----                                   -------
vdd                                    1.74934
i                                            0
zn                                     1.74934
vin#branch                                   0
vdd#branch                        -8.69634e-12

 Reference value :  2.02835e-07
No. of Data Rows : 68034

  Measurements for Transient Analysis

tphl                =  3.21177e-09 targ=  2.84006e-08 trig=  2.51888e-08
tplh                =  6.88596e-09 targ=  1.04452e-07 trig=  9.75665e-08
i_vdd_avg           =  -1.79921e-06 from=  1.00000e-08 to=  3.30003e-07
power_avg_uw        =  3.14743e+00


Total analysis time (seconds) = 0.306002

Total elapsed time (seconds) = 0.377 

Total DRAM available = 16384.000 MB.
DRAM currently available =  119.812 MB.
Maximum ngspice program size =   16.719 MB.
Current ngspice program size =   16.719 MB.

