
Note: No compatibility mode selected!


Circuit: GF180MCU library cell aoi21_4 A1_to_ZN__A2=1,B=0

Doing analysis at TEMP = 44.343612 and TNOM = 27.000000

Using SPARSE 1.3 as Direct Linear Solver

Initial Transient Solution
--------------------------

Node                                   Voltage
----                                   -------
vdd                                    1.63122
a1                                           0
a2                                     1.63122
b                                            0
xu1.net_0_0                        9.41249e-10
zn                                     1.63122
xu1.net_0_1                        9.41249e-10
xu1.net_0_2                        9.41249e-10
xu1.net_0_3                        9.41249e-10
xu1.net_1                              1.63122
vfix_b#branch                                0
vfix_a2#branch                               0
vin#branch                                   0
vdd#branch                        -1.43749e-11

 Reference value :  2.58875e-08
 Reference value :  5.96425e-08
 Reference value :  9.16175e-08
 Reference value :  1.26747e-07
 Reference value :  1.56207e-07
 Reference value :  1.89008e-07
 Reference value :  2.19542e-07
 Reference value :  2.49317e-07
 Reference value :  2.82452e-07
 Reference value :  3.15792e-07
No. of Data Rows : 68032

  Measurements for Transient Analysis

tphl                =  1.79189e-09 targ=  2.98269e-08 trig=  2.80350e-08
tplh                =  3.71586e-09 targ=  1.09821e-07 trig=  1.06105e-07
i_vdd_avg           =  -6.60577e-07 from=  1.00000e-08 to=  3.30002e-07
power_avg_uw        =  1.07755e+00


Total analysis time (seconds) = 6.40539

Total elapsed time (seconds) = 6.461 

Total DRAM available = 16384.000 MB.
DRAM currently available =  239.312 MB.
Maximum ngspice program size =   14.484 MB.
Current ngspice program size =   14.484 MB.

