
Note: No compatibility mode selected!


Circuit: GF180MCU library cell inv_1 I_to_ZN

Doing analysis at TEMP = -5.558959 and TNOM = 27.000000

Using SPARSE 1.3 as Direct Linear Solver

Initial Transient Solution
--------------------------

Node                                   Voltage
----                                   -------
vdd                                     1.9484
i                                            0
zn                                      1.9484
vin#branch                                   0
vdd#branch                        -1.96048e-12

 Reference value :  1.94178e-07
No. of Data Rows : 68034

  Measurements for Transient Analysis

tphl                =  2.66755e-09 targ=  3.19566e-08 trig=  2.92891e-08
tplh                =  4.88508e-09 targ=  1.14752e-07 trig=  1.09867e-07
i_vdd_avg           =  -8.32689e-07 from=  1.00000e-08 to=  3.30004e-07
power_avg_uw        =  1.62241e+00


Total analysis time (seconds) = 0.332058

Total elapsed time (seconds) = 0.424 

Total DRAM available = 16384.000 MB.
DRAM currently available =  118.562 MB.
Maximum ngspice program size =   18.719 MB.
Current ngspice program size =   18.719 MB.

