
Note: No compatibility mode selected!


Circuit: GF180MCU library cell nand2_4 A1_to_ZN__A2=1

Doing analysis at TEMP = -5.095966 and TNOM = 27.000000

Using SPARSE 1.3 as Direct Linear Solver

Initial Transient Solution
--------------------------

Node                                   Voltage
----                                   -------
vdd                                    1.91801
a1                                           0
a2                                     1.91801
xu1.net_0_0                        1.02232e-11
zn                                     1.91801
xu1.net_0_1                        1.02231e-11
xu1.net_0_2                        1.02232e-11
xu1.net_0_3                        1.02231e-11
vfix_a2#branch                               0
vin#branch                                   0
vdd#branch                        -7.72063e-12

 Reference value :  3.51136e-08
 Reference value :  9.60936e-08
 Reference value :  1.59445e-07
 Reference value :  2.06634e-07
 Reference value :  2.62974e-07
 Reference value :  3.26175e-07
No. of Data Rows : 68032

  Measurements for Transient Analysis

tphl                =  2.92394e-09 targ=  3.22320e-08 trig=  2.93081e-08
tplh                =  4.59867e-09 targ=  1.14523e-07 trig=  1.09924e-07
i_vdd_avg           =  -2.49009e-06 from=  1.00000e-08 to=  3.30005e-07
power_avg_uw        =  4.77601e+00


Total analysis time (seconds) = 1.71201

Total elapsed time (seconds) = 1.794 

Total DRAM available = 16384.000 MB.
DRAM currently available =  138.828 MB.
Maximum ngspice program size =   19.062 MB.
Current ngspice program size =   19.062 MB.

