
Note: No compatibility mode selected!


Circuit: GF180MCU library cell aoi21_4 A1_to_ZN__A2=1,B=0

Doing analysis at TEMP = 0.851612 and TNOM = 27.000000

Using SPARSE 1.3 as Direct Linear Solver

Initial Transient Solution
--------------------------

Node                                   Voltage
----                                   -------
vdd                                    1.74511
a1                                           0
a2                                     1.74511
b                                            0
xu1.net_0_0                         1.9824e-11
zn                                     1.74511
xu1.net_0_1                        1.98234e-11
xu1.net_0_2                         1.9824e-11
xu1.net_0_3                        1.98234e-11
xu1.net_1                              1.74511
vfix_b#branch                                0
vfix_a2#branch                               0
vin#branch                                   0
vdd#branch                        -1.40754e-11

 Reference value :  2.84375e-08
 Reference value :  6.40928e-08
 Reference value :  9.79878e-08
 Reference value :  1.33753e-07
 Reference value :  1.66108e-07
 Reference value :  2.00108e-07
 Reference value :  2.35348e-07
 Reference value :  2.68358e-07
 Reference value :  3.03288e-07
 Reference value :  3.35508e-07
No. of Data Rows : 68032

  Measurements for Transient Analysis

tphl                =  2.60646e-09 targ=  2.99416e-08 trig=  2.73351e-08
tplh                =  5.10843e-09 targ=  1.09114e-07 trig=  1.04005e-07
i_vdd_avg           =  -1.93549e-06 from=  1.00000e-08 to=  3.30003e-07
power_avg_uw        =  3.37764e+00


Total analysis time (seconds) = 6.14397

Total elapsed time (seconds) = 6.198 

Total DRAM available = 16384.000 MB.
DRAM currently available =  181.906 MB.
Maximum ngspice program size =   13.719 MB.
Current ngspice program size =   13.719 MB.

