
Note: No compatibility mode selected!


Circuit: GF180MCU library cell inv_4 I_to_ZN

Doing analysis at TEMP = 56.258624 and TNOM = 27.000000

Using SPARSE 1.3 as Direct Linear Solver

Initial Transient Solution
--------------------------

Node                                   Voltage
----                                   -------
vdd                                    1.86116
i                                            0
zn                                     1.86116
vin#branch                                   0
vdd#branch                        -8.91344e-12

 Reference value :  7.25946e-08
 Reference value :  1.58037e-07
 Reference value :  2.54210e-07
No. of Data Rows : 68030

  Measurements for Transient Analysis

tphl                =  3.01470e-10 targ=  2.76875e-08 trig=  2.73861e-08
tplh                =  1.32423e-09 targ=  1.05482e-07 trig=  1.04158e-07
i_vdd_avg           =  -2.99995e-07 from=  1.00000e-08 to=  3.30002e-07
power_avg_uw        =  5.58339e-01


Total analysis time (seconds) = 2.1725

Total elapsed time (seconds) = 2.232 

Total DRAM available = 16384.000 MB.
DRAM currently available =  102.469 MB.
Maximum ngspice program size =   13.688 MB.
Current ngspice program size =   13.688 MB.

