
Note: No compatibility mode selected!


Circuit: GF180MCU library cell inv_4 I_to_ZN

Doing analysis at TEMP = 4.570444 and TNOM = 27.000000

Using SPARSE 1.3 as Direct Linear Solver

Initial Transient Solution
--------------------------

Node                                   Voltage
----                                   -------
vdd                                     1.7742
i                                            0
zn                                      1.7742
vin#branch                                   0
vdd#branch                        -7.15783e-12

 Reference value :  6.42920e-08
 Reference value :  1.58811e-07
 Reference value :  2.50072e-07
 Reference value :  3.36931e-07
No. of Data Rows : 68032

  Measurements for Transient Analysis

tphl                =  7.54002e-10 targ=  2.54062e-08 trig=  2.46522e-08
tplh                =  1.40866e-09 targ=  9.73654e-08 trig=  9.59567e-08
i_vdd_avg           =  -1.33082e-06 from=  1.00000e-08 to=  3.30001e-07
power_avg_uw        =  2.36114e+00


Total analysis time (seconds) = 2.31651

Total elapsed time (seconds) = 2.385 

Total DRAM available = 16384.000 MB.
DRAM currently available =  101.297 MB.
Maximum ngspice program size =   17.953 MB.
Current ngspice program size =   17.953 MB.

