
Note: No compatibility mode selected!


Circuit: GF180MCU library cell nor2_1 A1_to_ZN__A2=0

Doing analysis at TEMP = 55.463047 and TNOM = 27.000000

Using SPARSE 1.3 as Direct Linear Solver

Initial Transient Solution
--------------------------

Node                                   Voltage
----                                   -------
vdd                                    1.66396
a1                                           0
a2                                           0
zn                                     1.66396
xu1.net_0                              1.66396
vfix_a2#branch                               0
vin#branch                                   0
vdd#branch                        -4.00613e-12

 Reference value :  1.30221e-07
 Reference value :  3.01161e-07
No. of Data Rows : 68030

  Measurements for Transient Analysis

tphl                =  1.25405e-09 targ=  2.54124e-08 trig=  2.41583e-08
tplh                =  4.50109e-09 targ=  9.89760e-08 trig=  9.44749e-08
i_vdd_avg           =  -5.33978e-07 from=  1.00000e-08 to=  3.30001e-07
power_avg_uw        =  8.88519e-01


Total analysis time (seconds) = 0.512878

Total elapsed time (seconds) = 0.577 

Total DRAM available = 16384.000 MB.
DRAM currently available =  124.359 MB.
Maximum ngspice program size =   16.594 MB.
Current ngspice program size =   16.594 MB.

