
Note: No compatibility mode selected!


Circuit: GF180MCU library cell nor2_1 A1_to_ZN__A2=0

Doing analysis at TEMP = -10.179457 and TNOM = 27.000000

Using SPARSE 1.3 as Direct Linear Solver

Initial Transient Solution
--------------------------

Node                                   Voltage
----                                   -------
vdd                                    1.79012
a1                                           0
a2                                           0
zn                                     1.79011
xu1.net_0                              1.79012
vfix_a2#branch                               0
vin#branch                                   0
vdd#branch                        -3.60304e-12

 Reference value :  1.14050e-07
 Reference value :  2.60849e-07
No. of Data Rows : 68032

  Measurements for Transient Analysis

tphl                =  5.24565e-10 targ=  2.66301e-08 trig=  2.61056e-08
tplh                =  1.35056e-09 targ=  1.01667e-07 trig=  1.00317e-07
i_vdd_avg           =  -5.58187e-08 from=  1.00000e-08 to=  3.30005e-07
power_avg_uw        =  9.99219e-02


Total analysis time (seconds) = 1.26246

Total elapsed time (seconds) = 1.320 

Total DRAM available = 16384.000 MB.
DRAM currently available =  124.406 MB.
Maximum ngspice program size =   15.125 MB.
Current ngspice program size =   15.125 MB.

