
Note: No compatibility mode selected!


Circuit: GF180MCU library cell xor2_1 A1_to_Z__A2=0

Doing analysis at TEMP = 36.248971 and TNOM = 27.000000

Using SPARSE 1.3 as Direct Linear Solver

Initial Transient Solution
--------------------------

Node                                   Voltage
----                                   -------
vdd                                    1.96398
a1                                           0
a2                                           0
xu1.i                                  1.96398
z                                  3.95237e-08
xu1.net_0                          7.12839e-09
xu1.net_2                              1.96398
xu1.net_1                             0.770033
vfix_a2#branch                               0
vin#branch                                   0
vdd#branch                        -1.24352e-11

 Reference value :  5.99652e-08
 Reference value :  1.38558e-07
 Reference value :  2.11200e-07
 Reference value :  2.83458e-07
No. of Data Rows : 68034

  Measurements for Transient Analysis

tplh                =  9.27167e-09 targ=  3.70380e-08 trig=  2.77664e-08
tphl                =  4.11970e-09 targ=  1.09419e-07 trig=  1.05299e-07
i_vdd_avg           =  -1.94619e-06 from=  1.00000e-08 to=  3.30003e-07
power_avg_uw        =  3.82228e+00


Total analysis time (seconds) = 2.8909

Total elapsed time (seconds) = 2.947 

Total DRAM available = 16384.000 MB.
DRAM currently available =  107.781 MB.
Maximum ngspice program size =   14.328 MB.
Current ngspice program size =   14.328 MB.

