
Note: No compatibility mode selected!


Circuit: GF180MCU library cell aoi21_1 A1_to_ZN__A2=1,B=0

Doing analysis at TEMP = 44.979245 and TNOM = 27.000000

Using SPARSE 1.3 as Direct Linear Solver

Initial Transient Solution
--------------------------

Node                                   Voltage
----                                   -------
vdd                                    1.67647
a1                                           0
a2                                     1.67647
b                                            0
xu1.net_0                          9.71994e-10
zn                                     1.67647
xu1.net_1                              1.67647
vfix_b#branch                                0
vfix_a2#branch                               0
vin#branch                                   0
vdd#branch                         -3.7061e-12

 Reference value :  8.93344e-08
 Reference value :  1.95089e-07
 Reference value :  3.08666e-07
No. of Data Rows : 68030

  Measurements for Transient Analysis

tphl                =  2.55870e-09 targ=  2.98797e-08 trig=  2.73210e-08
tplh                =  5.00026e-09 targ=  1.08963e-07 trig=  1.03963e-07
i_vdd_avg           =  -3.97942e-07 from=  1.00000e-08 to=  3.30001e-07
power_avg_uw        =  6.67139e-01


Total analysis time (seconds) = 1.74078

Total elapsed time (seconds) = 1.795 

Total DRAM available = 16384.000 MB.
DRAM currently available =  239.312 MB.
Maximum ngspice program size =   12.594 MB.
Current ngspice program size =   12.453 MB.

