
Note: No compatibility mode selected!


Circuit: GF180MCU library cell xor2_4 A1_to_Z__A2=0

Doing analysis at TEMP = -5.133482 and TNOM = 27.000000

Using SPARSE 1.3 as Direct Linear Solver

Initial Transient Solution
--------------------------

Node                                   Voltage
----                                   -------
vdd                                    1.78542
a1                                           0
a2                                           0
xu1.net_2                           0.00442754
xu1.i                                  1.78542
xu1.net_0                           2.1045e-11
xu1.z_neg                              1.78542
z                                  9.83748e-09
xu1.net_1                              1.78542
vfix_a2#branch                               0
vin#branch                                   0
vdd#branch                        -1.29352e-11

 Reference value :  3.90138e-08
 Reference value :  8.38938e-08
 Reference value :  1.33890e-07
 Reference value :  1.80435e-07
 Reference value :  2.22954e-07
 Reference value :  2.68945e-07
 Reference value :  3.09655e-07
No. of Data Rows : 68030

  Measurements for Transient Analysis

tplh                =  1.67700e-09 targ=  2.90552e-08 trig=  2.73782e-08
tphl                =  3.07571e-09 targ=  1.07210e-07 trig=  1.04134e-07
i_vdd_avg           =  -3.26320e-07 from=  1.00000e-08 to=  3.30000e-07
power_avg_uw        =  5.82618e-01


Total analysis time (seconds) = 2.2374

Total elapsed time (seconds) = 2.294 

Total DRAM available = 16384.000 MB.
DRAM currently available =  128.750 MB.
Maximum ngspice program size =   17.250 MB.
Current ngspice program size =   17.250 MB.

