
Note: No compatibility mode selected!


Circuit: GF180MCU library cell xor2_1 A1_to_Z__A2=0

Doing analysis at TEMP = 52.507572 and TNOM = 27.000000

Using SPARSE 1.3 as Direct Linear Solver

Initial Transient Solution
--------------------------

Node                                   Voltage
----                                   -------
vdd                                    1.88386
a1                                           0
a2                                           0
xu1.i                                  1.88386
z                                  4.20446e-08
xu1.net_0                          1.37546e-08
xu1.net_2                              1.88386
xu1.net_1                             0.722121
vfix_a2#branch                               0
vin#branch                                   0
vdd#branch                        -1.36998e-11

 Reference value :  5.23422e-08
 Reference value :  1.26447e-07
 Reference value :  1.96492e-07
 Reference value :  2.75182e-07
No. of Data Rows : 68032

  Measurements for Transient Analysis

tplh                =  3.91538e-09 targ=  3.01302e-08 trig=  2.62148e-08
tphl                =  2.51267e-09 targ=  1.03157e-07 trig=  1.00644e-07
i_vdd_avg           =  -6.80203e-07 from=  1.00000e-08 to=  3.30002e-07
power_avg_uw        =  1.28141e+00


Total analysis time (seconds) = 2.72249

Total elapsed time (seconds) = 2.788 

Total DRAM available = 16384.000 MB.
DRAM currently available =  119.391 MB.
Maximum ngspice program size =   15.906 MB.
Current ngspice program size =   15.906 MB.

