
Note: No compatibility mode selected!


Circuit: GF180MCU library cell xor2_4 A1_to_Z__A2=0

Doing analysis at TEMP = 21.711622 and TNOM = 27.000000

Using SPARSE 1.3 as Direct Linear Solver

Initial Transient Solution
--------------------------

Node                                   Voltage
----                                   -------
vdd                                    1.65374
a1                                           0
a2                                           0
xu1.net_2                            0.0190355
xu1.i                                  1.65374
xu1.net_0                          2.93573e-10
xu1.z_neg                              1.65374
z                                  1.09575e-08
xu1.net_1                              1.65374
vfix_a2#branch                               0
vin#branch                                   0
vdd#branch                        -1.20745e-11

 Reference value :  3.46056e-08
 Reference value :  7.53456e-08
 Reference value :  1.16174e-07
 Reference value :  1.56349e-07
 Reference value :  1.98596e-07
 Reference value :  2.41331e-07
 Reference value :  2.82574e-07
 Reference value :  3.24899e-07
No. of Data Rows : 68034

  Measurements for Transient Analysis

tplh                =  3.54292e-09 targ=  3.28145e-08 trig=  2.92716e-08
tphl                =  5.23569e-09 targ=  1.15050e-07 trig=  1.09815e-07
i_vdd_avg           =  -1.45197e-06 from=  1.00000e-08 to=  3.30004e-07
power_avg_uw        =  2.40118e+00


Total analysis time (seconds) = 4.94252

Total elapsed time (seconds) = 4.998 

Total DRAM available = 16384.000 MB.
DRAM currently available =  121.109 MB.
Maximum ngspice program size =   14.719 MB.
Current ngspice program size =   14.719 MB.

