
Note: No compatibility mode selected!


Circuit: GF180MCU library cell mux2_4 I0_to_Z__I1=0,S=0

Doing analysis at TEMP = 119.346870 and TNOM = 27.000000

Using SPARSE 1.3 as Direct Linear Solver

Initial Transient Solution
--------------------------

Node                                   Voltage
----                                   -------
vdd                                    1.66307
i0                                           0
i1                                           0
s                                            0
xu1.int04                              1.66307
z                                  1.63287e-08
xu1.net_1                            0.0458385
xu1.net_3                              1.20523
xu1.sel1_n                             1.66307
xu1.net_0                              1.66307
xu1.net_2                              1.66307
vfix_s#branch                                0
vfix_i1#branch                               0
vin#branch                                   0
vdd#branch                        -4.03222e-11

 Reference value :  2.80288e-08
 Reference value :  7.44138e-08
 Reference value :  1.17670e-07
 Reference value :  1.59530e-07
 Reference value :  2.05544e-07
 Reference value :  2.52914e-07
 Reference value :  2.99865e-07
No. of Data Rows : 68030

  Measurements for Transient Analysis

tplh                =  2.70048e-09 targ=  2.75061e-08 trig=  2.48057e-08
tphl                =  3.11039e-09 targ=  9.95274e-08 trig=  9.64170e-08
i_vdd_avg           =  -1.66846e-06 from=  1.00000e-08 to=  3.30000e-07
power_avg_uw        =  2.77476e+00


Total analysis time (seconds) = 2.18775

Total elapsed time (seconds) = 2.277 

Total DRAM available = 16384.000 MB.
DRAM currently available =  131.000 MB.
Maximum ngspice program size =   19.078 MB.
Current ngspice program size =   19.078 MB.

