
Note: No compatibility mode selected!


Circuit: GF180MCU library cell inv_4 I_to_ZN

Doing analysis at TEMP = 104.152640 and TNOM = 27.000000

Using SPARSE 1.3 as Direct Linear Solver

Initial Transient Solution
--------------------------

Node                                   Voltage
----                                   -------
vdd                                    1.81336
i                                            0
zn                                     1.81336
vin#branch                                   0
vdd#branch                        -3.14161e-11

 Reference value :  7.03830e-08
 Reference value :  1.55844e-07
 Reference value :  2.49083e-07
 Reference value :  3.37544e-07
No. of Data Rows : 68032

  Measurements for Transient Analysis

tphl                =  1.64991e-09 targ=  2.84952e-08 trig=  2.68453e-08
tplh                =  2.92562e-09 targ=  1.05461e-07 trig=  1.02536e-07
i_vdd_avg           =  -1.76258e-06 from=  1.00000e-08 to=  3.30004e-07
power_avg_uw        =  3.19619e+00


Total analysis time (seconds) = 2.04638

Total elapsed time (seconds) = 2.106 

Total DRAM available = 16384.000 MB.
DRAM currently available =  127.766 MB.
Maximum ngspice program size =   13.109 MB.
Current ngspice program size =   12.984 MB.

