
Note: No compatibility mode selected!


Circuit: GF180MCU library cell inv_1 I_to_ZN

Doing analysis at TEMP = -30.145051 and TNOM = 27.000000

Using SPARSE 1.3 as Direct Linear Solver

Initial Transient Solution
--------------------------

Node                                   Voltage
----                                   -------
vdd                                    1.86703
i                                            0
zn                                     1.86703
vin#branch                                   0
vdd#branch                        -1.87715e-12

 Reference value :  2.09949e-07
No. of Data Rows : 68030

  Measurements for Transient Analysis

tphl                =  3.36183e-09 targ=  3.10600e-08 trig=  2.76981e-08
tplh                =  5.79091e-09 targ=  1.10885e-07 trig=  1.05094e-07
i_vdd_avg           =  -1.46302e-06 from=  1.00000e-08 to=  3.30000e-07
power_avg_uw        =  2.73151e+00


Total analysis time (seconds) = 0.660592

Total elapsed time (seconds) = 0.725 

Total DRAM available = 16384.000 MB.
DRAM currently available =  181.906 MB.
Maximum ngspice program size =   15.031 MB.
Current ngspice program size =   15.031 MB.

