
Note: No compatibility mode selected!


Circuit: GF180MCU library cell oai21_1 A1_to_ZN__A2=0,B=1

Doing analysis at TEMP = 15.253406 and TNOM = 27.000000

Using SPARSE 1.3 as Direct Linear Solver

Initial Transient Solution
--------------------------

Node                                   Voltage
----                                   -------
vdd                                    1.73748
a1                                           0
a2                                           0
b                                      1.73748
zn                                     1.73748
xu1.net_0                          1.59757e-10
xu1.net_1                              1.73748
vfix_b#branch                                0
vfix_a2#branch                               0
vin#branch                                   0
vdd#branch                        -3.52268e-12

 Reference value :  8.65851e-08
 Reference value :  2.07960e-07
 Reference value :  3.18393e-07
No. of Data Rows : 68034

  Measurements for Transient Analysis

tphl                =  3.61588e-09 targ=  3.07472e-08 trig=  2.71313e-08
tplh                =  7.89874e-09 targ=  1.11293e-07 trig=  1.03394e-07
i_vdd_avg           =  -9.03675e-07 from=  1.00000e-08 to=  3.30003e-07
power_avg_uw        =  1.57011e+00


Total analysis time (seconds) = 1.6957

Total elapsed time (seconds) = 1.760 

Total DRAM available = 16384.000 MB.
DRAM currently available =  129.797 MB.
Maximum ngspice program size =   17.031 MB.
Current ngspice program size =   17.031 MB.

