
Note: No compatibility mode selected!


Circuit: GF180MCU library cell oai21_1 A1_to_ZN__A2=0,B=1

Doing analysis at TEMP = -6.283903 and TNOM = 27.000000

Using SPARSE 1.3 as Direct Linear Solver

Initial Transient Solution
--------------------------

Node                                   Voltage
----                                   -------
vdd                                    1.67541
a1                                           0
a2                                           0
b                                      1.67541
zn                                     1.67541
xu1.net_0                          1.92832e-11
xu1.net_1                              1.67541
vfix_b#branch                                0
vfix_a2#branch                               0
vin#branch                                   0
vdd#branch                        -3.37421e-12

 Reference value :  8.88243e-08
 Reference value :  1.99999e-07
 Reference value :  3.15031e-07
No. of Data Rows : 68030

  Measurements for Transient Analysis

tphl                =  5.70060e-09 targ=  3.37990e-08 trig=  2.80984e-08
tplh                =  1.33166e-08 targ=  1.19612e-07 trig=  1.06295e-07
i_vdd_avg           =  -1.44776e-06 from=  1.00000e-08 to=  3.30001e-07
power_avg_uw        =  2.42559e+00


Total analysis time (seconds) = 1.73946

Total elapsed time (seconds) = 1.793 

Total DRAM available = 16384.000 MB.
DRAM currently available =  131.125 MB.
Maximum ngspice program size =   13.031 MB.
Current ngspice program size =   12.625 MB.

