
Note: No compatibility mode selected!


Circuit: GF180MCU library cell xor2_4 A1_to_Z__A2=0

Doing analysis at TEMP = 76.926875 and TNOM = 27.000000

Using SPARSE 1.3 as Direct Linear Solver

Initial Transient Solution
--------------------------

Node                                   Voltage
----                                   -------
vdd                                    1.91651
a1                                           0
a2                                           0
xu1.net_2                            0.0466318
xu1.i                                  1.91651
xu1.net_0                          1.65285e-08
xu1.z_neg                              1.91651
z                                  1.22669e-08
xu1.net_1                              1.91651
vfix_a2#branch                               0
vin#branch                                   0
vdd#branch                        -1.79383e-11

 Reference value :  3.50445e-08
 Reference value :  7.75495e-08
 Reference value :  1.17846e-07
 Reference value :  1.59066e-07
 Reference value :  1.98119e-07
 Reference value :  2.44549e-07
 Reference value :  2.89826e-07
 Reference value :  3.32341e-07
No. of Data Rows : 68030

  Measurements for Transient Analysis

tplh                =  2.95946e-09 targ=  3.14480e-08 trig=  2.84885e-08
tphl                =  4.20140e-09 targ=  1.11667e-07 trig=  1.07465e-07
i_vdd_avg           =  -2.51892e-06 from=  1.00000e-08 to=  3.30001e-07
power_avg_uw        =  4.82753e+00


Total analysis time (seconds) = 4.97807

Total elapsed time (seconds) = 5.052 

Total DRAM available = 16384.000 MB.
DRAM currently available =  109.562 MB.
Maximum ngspice program size =   13.875 MB.
Current ngspice program size =   13.875 MB.

