
Note: No compatibility mode selected!


Circuit: GF180MCU library cell oai21_1 A1_to_ZN__A2=0,B=1

Doing analysis at TEMP = 62.432228 and TNOM = 27.000000

Using SPARSE 1.3 as Direct Linear Solver

Initial Transient Solution
--------------------------

Node                                   Voltage
----                                   -------
vdd                                    1.85323
a1                                           0
a2                                           0
b                                      1.85323
zn                                     1.85323
xu1.net_0                            6.486e-09
xu1.net_1                              1.85323
vfix_b#branch                                0
vfix_a2#branch                               0
vin#branch                                   0
vdd#branch                        -4.80212e-12

 Reference value :  9.74964e-08
 Reference value :  2.16451e-07
 Reference value :  3.30555e-07
No. of Data Rows : 68032

  Measurements for Transient Analysis

tphl                =  1.62519e-09 targ=  2.73421e-08 trig=  2.57169e-08
tplh                =  3.28170e-09 targ=  1.02433e-07 trig=  9.91508e-08
i_vdd_avg           =  -4.12541e-07 from=  1.00000e-08 to=  3.30000e-07
power_avg_uw        =  7.64533e-01


Total analysis time (seconds) = 1.66197

Total elapsed time (seconds) = 1.716 

Total DRAM available = 16384.000 MB.
DRAM currently available =  110.156 MB.
Maximum ngspice program size =   15.688 MB.
Current ngspice program size =   15.688 MB.

