
Note: No compatibility mode selected!


Circuit: GF180MCU library cell nor2_1 A1_to_ZN__A2=0

Doing analysis at TEMP = -32.955512 and TNOM = 27.000000

Using SPARSE 1.3 as Direct Linear Solver

Initial Transient Solution
--------------------------

Node                                   Voltage
----                                   -------
vdd                                    1.70792
a1                                           0
a2                                           0
zn                                     1.70792
xu1.net_0                              1.70792
vfix_a2#branch                               0
vin#branch                                   0
vdd#branch                        -3.43603e-12

 Reference value :  1.37364e-07
 Reference value :  2.96794e-07
No. of Data Rows : 68034

  Measurements for Transient Analysis

tphl                =  4.78846e-09 targ=  3.26602e-08 trig=  2.78717e-08
tplh                =  1.25123e-08 targ=  1.18128e-07 trig=  1.05615e-07
i_vdd_avg           =  -1.52035e-06 from=  1.00000e-08 to=  3.30004e-07
power_avg_uw        =  2.59663e+00


Total analysis time (seconds) = 0.654643

Total elapsed time (seconds) = 0.708 

Total DRAM available = 16384.000 MB.
DRAM currently available =  128.750 MB.
Maximum ngspice program size =   14.109 MB.
Current ngspice program size =   14.109 MB.

