
Note: No compatibility mode selected!


Circuit: GF180MCU library cell oai21_4 A1_to_ZN__A2=0,B=1

Doing analysis at TEMP = 71.538322 and TNOM = 27.000000

Using SPARSE 1.3 as Direct Linear Solver

Initial Transient Solution
--------------------------

Node                                   Voltage
----                                   -------
vdd                                    1.87957
a1                                           0
a2                                           0
b                                      1.87957
zn                                     1.87957
xu1.net_0                          1.18117e-08
xu1.net_1_0                            1.87957
xu1.net_1_1                            1.87957
xu1.net_1_2                            1.87957
xu1.net_1_3                            1.87957
vfix_b#branch                                0
vfix_a2#branch                               0
vin#branch                                   0
vdd#branch                         -2.2904e-11

 Reference value :  2.57475e-08
 Reference value :  5.59515e-08
 Reference value :  9.12865e-08
 Reference value :  1.24366e-07
 Reference value :  1.57646e-07
 Reference value :  1.93097e-07
 Reference value :  2.27187e-07
 Reference value :  2.57407e-07
 Reference value :  2.88166e-07
 Reference value :  3.20541e-07
No. of Data Rows : 68032

  Measurements for Transient Analysis

tphl                =  1.15247e-09 targ=  2.62670e-08 trig=  2.51145e-08
tplh                =  2.58640e-09 targ=  9.99299e-08 trig=  9.73435e-08
i_vdd_avg           =  -1.28101e-06 from=  1.00000e-08 to=  3.30001e-07
power_avg_uw        =  2.40774e+00


Total analysis time (seconds) = 4.50296

Total elapsed time (seconds) = 4.563 

Total DRAM available = 16384.000 MB.
DRAM currently available =   75.578 MB.
Maximum ngspice program size =   12.953 MB.
Current ngspice program size =   12.953 MB.

