
Note: No compatibility mode selected!


Circuit: GF180MCU library cell mux2_4 I0_to_Z__I1=0,S=0

Doing analysis at TEMP = 83.140218 and TNOM = 27.000000

Using SPARSE 1.3 as Direct Linear Solver

Initial Transient Solution
--------------------------

Node                                   Voltage
----                                   -------
vdd                                    1.84989
i0                                           0
i1                                           0
s                                            0
xu1.int04                              1.84989
z                                  1.26215e-08
xu1.net_1                            0.0413867
xu1.net_3                              1.33331
xu1.sel1_n                             1.84989
xu1.net_0                              1.84989
xu1.net_2                              1.84989
vfix_s#branch                                0
vfix_i1#branch                               0
vin#branch                                   0
vdd#branch                        -2.01171e-11

 Reference value :  3.69784e-08
 Reference value :  7.80484e-08
 Reference value :  1.21829e-07
 Reference value :  1.66084e-07
 Reference value :  2.06858e-07
 Reference value :  2.49123e-07
 Reference value :  2.92299e-07
 Reference value :  3.34884e-07
No. of Data Rows : 68032

  Measurements for Transient Analysis

tplh                =  2.06776e-09 targ=  2.88932e-08 trig=  2.68255e-08
tphl                =  2.97043e-09 targ=  1.05447e-07 trig=  1.02476e-07
i_vdd_avg           =  -1.11737e-06 from=  1.00000e-08 to=  3.30004e-07
power_avg_uw        =  2.06702e+00


Total analysis time (seconds) = 4.72097

Total elapsed time (seconds) = 4.777 

Total DRAM available = 16384.000 MB.
DRAM currently available =  228.469 MB.
Maximum ngspice program size =   13.984 MB.
Current ngspice program size =   13.984 MB.

