
Note: No compatibility mode selected!


Circuit: GF180MCU library cell nor2_4 A1_to_ZN__A2=0

Doing analysis at TEMP = 8.499350 and TNOM = 27.000000

Using SPARSE 1.3 as Direct Linear Solver

Initial Transient Solution
--------------------------

Node                                   Voltage
----                                   -------
vdd                                    1.80107
a1                                           0
a2                                           0
zn                                     1.80107
xu1.net_0_0                            1.80107
xu1.net_0_1                            1.80107
xu1.net_0_2                            1.80107
xu1.net_0_3                            1.80107
vfix_a2#branch                               0
vin#branch                                   0
vdd#branch                         -1.4559e-11

 Reference value :  3.56289e-08
 Reference value :  8.76489e-08
 Reference value :  1.36600e-07
 Reference value :  1.84068e-07
 Reference value :  2.37509e-07
 Reference value :  2.86535e-07
 Reference value :  3.31860e-07
No. of Data Rows : 68030

  Measurements for Transient Analysis

tphl                =  2.65327e-09 targ=  3.17865e-08 trig=  2.91332e-08
tplh                =  5.49079e-09 targ=  1.14890e-07 trig=  1.09400e-07
i_vdd_avg           =  -1.81268e-06 from=  1.00000e-08 to=  3.30000e-07
power_avg_uw        =  3.26476e+00


Total analysis time (seconds) = 4.21363

Total elapsed time (seconds) = 4.284 

Total DRAM available = 16384.000 MB.
DRAM currently available =  159.953 MB.
Maximum ngspice program size =   15.766 MB.
Current ngspice program size =   15.766 MB.

