
Note: No compatibility mode selected!


Circuit: GF180MCU library cell oai21_4 A1_to_ZN__A2=0,B=1

Doing analysis at TEMP = 16.713545 and TNOM = 27.000000

Using SPARSE 1.3 as Direct Linear Solver

Initial Transient Solution
--------------------------

Node                                   Voltage
----                                   -------
vdd                                    1.73711
a1                                           0
a2                                           0
b                                      1.73711
zn                                     1.73711
xu1.net_0                          1.82586e-10
xu1.net_1_0                            1.73711
xu1.net_1_1                            1.73711
xu1.net_1_2                            1.73711
xu1.net_1_3                            1.73711
vfix_b#branch                                0
vfix_a2#branch                               0
vin#branch                                   0
vdd#branch                         -1.4103e-11

 Reference value :  2.77425e-08
 Reference value :  6.29086e-08
 Reference value :  9.84836e-08
 Reference value :  1.32025e-07
 Reference value :  1.64835e-07
 Reference value :  1.98214e-07
 Reference value :  2.31069e-07
 Reference value :  2.62074e-07
 Reference value :  2.93105e-07
 Reference value :  3.27400e-07
No. of Data Rows : 68032

  Measurements for Transient Analysis

tphl                =  5.17540e-10 targ=  2.83531e-08 trig=  2.78356e-08
tplh                =  1.89729e-09 targ=  1.07404e-07 trig=  1.05507e-07
i_vdd_avg           =  -1.82891e-07 from=  1.00000e-08 to=  3.30005e-07
power_avg_uw        =  3.17702e-01


Total analysis time (seconds) = 6.28872

Total elapsed time (seconds) = 6.350 

Total DRAM available = 16384.000 MB.
DRAM currently available =   78.641 MB.
Maximum ngspice program size =   14.469 MB.
Current ngspice program size =   14.469 MB.

