
Note: No compatibility mode selected!


Circuit: GF180MCU library cell nand2_4 A1_to_ZN__A2=1

Doing analysis at TEMP = 67.222040 and TNOM = 27.000000

Using SPARSE 1.3 as Direct Linear Solver

Initial Transient Solution
--------------------------

Node                                   Voltage
----                                   -------
vdd                                    1.71982
a1                                           0
a2                                     1.71982
xu1.net_0_0                         4.6372e-09
zn                                     1.71982
xu1.net_0_1                         4.6372e-09
xu1.net_0_2                         4.6372e-09
xu1.net_0_3                         4.6372e-09
vfix_a2#branch                               0
vin#branch                                   0
vdd#branch                        -9.68035e-12

 Reference value :  4.42782e-08
 Reference value :  9.28782e-08
 Reference value :  1.42884e-07
 Reference value :  1.90298e-07
 Reference value :  2.33748e-07
 Reference value :  2.81259e-07
 Reference value :  3.32544e-07
No. of Data Rows : 68032

  Measurements for Transient Analysis

tphl                =  1.27672e-09 targ=  2.64596e-08 trig=  2.51828e-08
tplh                =  1.76230e-09 targ=  9.93108e-08 trig=  9.75485e-08
i_vdd_avg           =  -1.10831e-06 from=  1.00000e-08 to=  3.30004e-07
power_avg_uw        =  1.90609e+00


Total analysis time (seconds) = 3.84835

Total elapsed time (seconds) = 3.903 

Total DRAM available = 16384.000 MB.
DRAM currently available =   87.547 MB.
Maximum ngspice program size =   12.984 MB.
Current ngspice program size =   12.875 MB.

