
Note: No compatibility mode selected!


Circuit: GF180MCU library cell aoi21_1 A1_to_ZN__A2=1,B=0

Doing analysis at TEMP = 31.192568 and TNOM = 27.000000

Using SPARSE 1.3 as Direct Linear Solver

Initial Transient Solution
--------------------------

Node                                   Voltage
----                                   -------
vdd                                    1.93848
a1                                           0
a2                                     1.93848
b                                            0
xu1.net_0                          3.04668e-10
zn                                     1.93848
xu1.net_1                              1.93848
vfix_b#branch                                0
vfix_a2#branch                               0
vin#branch                                   0
vdd#branch                        -4.03026e-12

 Reference value :  7.85828e-08
 Reference value :  1.91178e-07
 Reference value :  2.98758e-07
No. of Data Rows : 68032

  Measurements for Transient Analysis

tphl                =  4.74982e-09 targ=  3.35525e-08 trig=  2.88026e-08
tplh                =  9.75616e-09 targ=  1.18164e-07 trig=  1.08408e-07
i_vdd_avg           =  -1.49704e-06 from=  1.00000e-08 to=  3.30003e-07
power_avg_uw        =  2.90197e+00


Total analysis time (seconds) = 1.81199

Total elapsed time (seconds) = 1.873 

Total DRAM available = 16384.000 MB.
DRAM currently available =  181.906 MB.
Maximum ngspice program size =   15.016 MB.
Current ngspice program size =   15.016 MB.

