
Note: No compatibility mode selected!


Circuit: GF180MCU library cell xor2_1 A1_to_Z__A2=0

Doing analysis at TEMP = -24.496247 and TNOM = 27.000000

Using SPARSE 1.3 as Direct Linear Solver

Initial Transient Solution
--------------------------

Node                                   Voltage
----                                   -------
vdd                                    1.70773
a1                                           0
a2                                           0
xu1.i                                  1.70773
z                                  3.20267e-08
xu1.net_0                          2.39356e-11
xu1.net_2                              1.70773
xu1.net_1                             0.814766
vfix_a2#branch                               0
vin#branch                                   0
vdd#branch                        -9.56497e-12

 Reference value :  5.43955e-08
 Reference value :  1.36393e-07
 Reference value :  2.10115e-07
 Reference value :  2.93858e-07
No. of Data Rows : 68034

  Measurements for Transient Analysis

tplh                =  1.98626e-09 targ=  2.70577e-08 trig=  2.50715e-08
tphl                =  1.77178e-09 targ=  9.89863e-08 trig=  9.72145e-08
i_vdd_avg           =  -2.57937e-07 from=  1.00000e-08 to=  3.30003e-07
power_avg_uw        =  4.40489e-01


Total analysis time (seconds) = 1.23458

Total elapsed time (seconds) = 1.285 

Total DRAM available = 16384.000 MB.
DRAM currently available =  131.000 MB.
Maximum ngspice program size =   14.328 MB.
Current ngspice program size =   14.328 MB.

