
Note: No compatibility mode selected!


Circuit: GF180MCU library cell nand3_1 A1_to_ZN__A2=1,A3=1

Doing analysis at TEMP = -31.408085 and TNOM = 27.000000

Using SPARSE 1.3 as Direct Linear Solver

Initial Transient Solution
--------------------------

Node                                   Voltage
----                                   -------
vdd                                    1.63587
a1                                           0
a2                                     1.63587
a3                                     1.63587
xu1.net_1                          5.05539e-13
xu1.net_0                          1.01112e-12
zn                                     1.63587
vfix_a3#branch                               0
vfix_a2#branch                               0
vin#branch                                   0
vdd#branch                        -1.64597e-12

 Reference value :  9.54233e-08
 Reference value :  2.06358e-07
 Reference value :  3.17734e-07
No. of Data Rows : 68032

  Measurements for Transient Analysis

tphl                =  6.68956e-09 targ=  3.47300e-08 trig=  2.80404e-08
tplh                =  8.59872e-09 targ=  1.14720e-07 trig=  1.06121e-07
i_vdd_avg           =  -1.24370e-06 from=  1.00000e-08 to=  3.30004e-07
power_avg_uw        =  2.03454e+00


Total analysis time (seconds) = 1.80554

Total elapsed time (seconds) = 1.864 

Total DRAM available = 16384.000 MB.
DRAM currently available =  124.406 MB.
Maximum ngspice program size =   14.703 MB.
Current ngspice program size =   14.703 MB.

