
Note: No compatibility mode selected!


Circuit: GF180MCU library cell inv_1 I_to_ZN

Doing analysis at TEMP = 16.617441 and TNOM = 27.000000

Using SPARSE 1.3 as Direct Linear Solver

Initial Transient Solution
--------------------------

Node                                   Voltage
----                                   -------
vdd                                    1.63564
i                                            0
zn                                     1.63564
vin#branch                                   0
vdd#branch                        -1.66052e-12

 Reference value :  2.05575e-07
No. of Data Rows : 68030

  Measurements for Transient Analysis

tphl                =  2.27875e-09 targ=  3.05900e-08 trig=  2.83112e-08
tplh                =  4.10949e-09 targ=  1.11043e-07 trig=  1.06934e-07
i_vdd_avg           =  -3.43570e-07 from=  1.00000e-08 to=  3.30002e-07
power_avg_uw        =  5.61959e-01


Total analysis time (seconds) = 0.355556

Total elapsed time (seconds) = 0.419 

Total DRAM available = 16384.000 MB.
DRAM currently available =  122.734 MB.
Maximum ngspice program size =   16.391 MB.
Current ngspice program size =   16.391 MB.

