
Note: No compatibility mode selected!


Circuit: GF180MCU library cell oai21_4 A1_to_ZN__A2=0,B=1

Doing analysis at TEMP = 1.041878 and TNOM = 27.000000

Using SPARSE 1.3 as Direct Linear Solver

Initial Transient Solution
--------------------------

Node                                   Voltage
----                                   -------
vdd                                    1.80906
a1                                           0
a2                                           0
b                                      1.80906
zn                                     1.80906
xu1.net_0                          3.96848e-11
xu1.net_1_0                            1.80906
xu1.net_1_1                            1.80906
xu1.net_1_2                            1.80906
xu1.net_1_3                            1.80906
vfix_b#branch                                0
vfix_a2#branch                               0
vin#branch                                   0
vdd#branch                        -1.45829e-11

 Reference value :  2.45425e-08
 Reference value :  5.73703e-08
 Reference value :  8.99353e-08
 Reference value :  1.23658e-07
 Reference value :  1.56363e-07
 Reference value :  1.87705e-07
 Reference value :  2.22365e-07
 Reference value :  2.57168e-07
 Reference value :  2.89683e-07
 Reference value :  3.22738e-07
No. of Data Rows : 68034

  Measurements for Transient Analysis

tphl                =  5.92003e-10 targ=  2.53109e-08 trig=  2.47189e-08
tplh                =  1.22087e-09 targ=  9.73776e-08 trig=  9.61567e-08
i_vdd_avg           =  -5.02383e-07 from=  1.00000e-08 to=  3.30003e-07
power_avg_uw        =  9.08843e-01


Total analysis time (seconds) = 5.95329

Total elapsed time (seconds) = 6.018 

Total DRAM available = 16384.000 MB.
DRAM currently available =  145.797 MB.
Maximum ngspice program size =   15.016 MB.
Current ngspice program size =   15.016 MB.

