
Note: No compatibility mode selected!


Circuit: GF180MCU library cell nor2_4 A1_to_ZN__A2=0

Doing analysis at TEMP = 70.513802 and TNOM = 27.000000

Using SPARSE 1.3 as Direct Linear Solver

Initial Transient Solution
--------------------------

Node                                   Voltage
----                                   -------
vdd                                    1.64325
a1                                           0
a2                                           0
zn                                     1.64325
xu1.net_0_0                            1.64325
xu1.net_0_1                            1.64325
xu1.net_0_2                            1.64325
xu1.net_0_3                            1.64325
vfix_a2#branch                               0
vin#branch                                   0
vdd#branch                        -2.00905e-11

 Reference value :  4.21846e-08
 Reference value :  8.76196e-08
 Reference value :  1.39347e-07
 Reference value :  1.91050e-07
 Reference value :  2.40860e-07
 Reference value :  2.90257e-07
 Reference value :  3.36812e-07
No. of Data Rows : 68030

  Measurements for Transient Analysis

tphl                =  7.79915e-10 targ=  2.54185e-08 trig=  2.46386e-08
tplh                =  2.03499e-09 targ=  9.79507e-08 trig=  9.59157e-08
i_vdd_avg           =  -7.77493e-07 from=  1.00000e-08 to=  3.30002e-07
power_avg_uw        =  1.27762e+00


Total analysis time (seconds) = 4.00883

Total elapsed time (seconds) = 4.055 

Total DRAM available = 16384.000 MB.
DRAM currently available =  107.781 MB.
Maximum ngspice program size =   14.734 MB.
Current ngspice program size =   14.734 MB.

