
Note: No compatibility mode selected!


Circuit: GF180MCU library cell inv_4 I_to_ZN

Doing analysis at TEMP = 26.756991 and TNOM = 27.000000

Using SPARSE 1.3 as Direct Linear Solver

Initial Transient Solution
--------------------------

Node                                   Voltage
----                                   -------
vdd                                    1.67516
i                                            0
zn                                     1.67516
vin#branch                                   0
vdd#branch                        -6.88456e-12

 Reference value :  7.57611e-08
 Reference value :  1.70295e-07
 Reference value :  2.69631e-07
No. of Data Rows : 68034

  Measurements for Transient Analysis

tphl                =  1.96409e-09 targ=  3.18459e-08 trig=  2.98818e-08
tplh                =  4.14079e-09 targ=  1.15786e-07 trig=  1.11645e-07
i_vdd_avg           =  -9.62048e-07 from=  1.00000e-08 to=  3.30005e-07
power_avg_uw        =  1.61158e+00


Total analysis time (seconds) = 0.965143

Total elapsed time (seconds) = 1.016 

Total DRAM available = 16384.000 MB.
DRAM currently available =  128.750 MB.
Maximum ngspice program size =   12.938 MB.
Current ngspice program size =   12.938 MB.

