
Note: No compatibility mode selected!


Circuit: GF180MCU library cell xor2_1 A1_to_Z__A2=0

Doing analysis at TEMP = -3.316493 and TNOM = 27.000000

Using SPARSE 1.3 as Direct Linear Solver

Initial Transient Solution
--------------------------

Node                                   Voltage
----                                   -------
vdd                                    1.77992
a1                                           0
a2                                           0
xu1.i                                  1.77992
z                                  3.45742e-08
xu1.net_0                          2.73342e-10
xu1.net_2                              1.77992
xu1.net_1                             0.794375
vfix_a2#branch                               0
vin#branch                                   0
vdd#branch                        -1.01707e-11

 Reference value :  5.51739e-08
 Reference value :  1.29625e-07
 Reference value :  1.98849e-07
 Reference value :  2.73250e-07
No. of Data Rows : 68030

  Measurements for Transient Analysis

tplh                =  1.37187e-08 targ=  3.83769e-08 trig=  2.46582e-08
tphl                =  3.90480e-09 targ=  9.98795e-08 trig=  9.59747e-08
i_vdd_avg           =  -2.22639e-06 from=  1.00000e-08 to=  3.30000e-07
power_avg_uw        =  3.96279e+00


Total analysis time (seconds) = 2.75659

Total elapsed time (seconds) = 2.813 

Total DRAM available = 16384.000 MB.
DRAM currently available =  181.906 MB.
Maximum ngspice program size =   16.266 MB.
Current ngspice program size =   16.266 MB.

