
Note: No compatibility mode selected!


Circuit: GF180MCU library cell aoi21_1 A1_to_ZN__A2=1,B=0

Doing analysis at TEMP = -33.011949 and TNOM = 27.000000

Using SPARSE 1.3 as Direct Linear Solver

Initial Transient Solution
--------------------------

Node                                   Voltage
----                                   -------
vdd                                     1.8054
a1                                           0
a2                                      1.8054
b                                            0
xu1.net_0                          3.87175e-13
zn                                      1.8054
xu1.net_1                               1.8054
vfix_b#branch                                0
vfix_a2#branch                               0
vin#branch                                   0
vdd#branch                        -3.63101e-12

 Reference value :  8.77169e-08
 Reference value :  2.00352e-07
 Reference value :  3.12841e-07
No. of Data Rows : 68032

  Measurements for Transient Analysis

tphl                =  5.03828e-09 targ=  3.07180e-08 trig=  2.56797e-08
tplh                =  1.28632e-08 targ=  1.11902e-07 trig=  9.90392e-08
i_vdd_avg           =  -2.16167e-06 from=  1.00000e-08 to=  3.30001e-07
power_avg_uw        =  3.90268e+00


Total analysis time (seconds) = 0.842113

Total elapsed time (seconds) = 0.930 

Total DRAM available = 16384.000 MB.
DRAM currently available =  118.562 MB.
Maximum ngspice program size =   19.469 MB.
Current ngspice program size =   19.469 MB.

