
Note: No compatibility mode selected!


Circuit: INV seed characterization sample 4413033

Doing analysis at TEMP = -5.568310 and TNOM = 27.000000

Using SPARSE 1.3 as Direct Linear Solver

Initial Transient Solution
--------------------------

Node                                   Voltage
----                                   -------
vdd                                    1.83737
in                                           0
out                                    1.83737
vin#branch                                   0
vdd#branch                        -1.84813e-12

 Reference value :  6.14484e-08
No. of Data Rows : 60047

  Measurements for Transient Analysis

tphl                =  2.69649e-10 targ=  2.28436e-09 trig=  2.01471e-09
tplh                =  2.77722e-10 targ=  2.23218e-08 trig=  2.20441e-08
i_vdd_avg           =  -3.40405e-06 from=  5.00000e-09 to=  1.10002e-07
power_avg_uw        =  6.25451e+00


Total analysis time (seconds) = 0.330319

Total elapsed time (seconds) = 0.410 

Total DRAM available = 16384.000 MB.
DRAM currently available =  259.297 MB.
Maximum ngspice program size =   12.562 MB.
Current ngspice program size =   12.156 MB.

