
Note: No compatibility mode selected!


Circuit: NOR2 seed characterization sample 4413048

Doing analysis at TEMP = 15.827500 and TNOM = 27.000000

Using SPARSE 1.3 as Direct Linear Solver

Initial Transient Solution
--------------------------

Node                                   Voltage
----                                   -------
vdd                                    1.93139
in                                           0
out                                    1.93139
pmid                                   1.93139
vin#branch                                   0
vdd#branch                        -3.92871e-12

 Reference value :  3.79506e-08
 Reference value :  9.00048e-08
No. of Data Rows : 60044

  Measurements for Transient Analysis

tphl                =  1.29389e-10 targ=  2.22329e-09 trig=  2.09390e-09
tplh                =  4.22903e-10 targ=  2.27046e-08 trig=  2.22817e-08
i_vdd_avg           =  -5.82665e-06 from=  5.00000e-09 to=  1.10001e-07
power_avg_uw        =  1.12535e+01


Total analysis time (seconds) = 0.555418

Total elapsed time (seconds) = 0.635 

Total DRAM available = 16384.000 MB.
DRAM currently available =  244.656 MB.
Maximum ngspice program size =   12.562 MB.
Current ngspice program size =   11.750 MB.

