
Note: No compatibility mode selected!


Circuit: NAND2 seed characterization sample 4413001

Doing analysis at TEMP = 38.932200 and TNOM = 27.000000

Using SPARSE 1.3 as Direct Linear Solver

Initial Transient Solution
--------------------------

Node                                   Voltage
----                                   -------
vdd                                    1.91251
in                                           0
out                                    1.91251
nmid                                0.00751235
vin#branch                                   0
vdd#branch                         -1.9435e-12

 Reference value :  4.15390e-08
 Reference value :  9.73540e-08
No. of Data Rows : 60047

  Measurements for Transient Analysis

tphl                =  1.53044e-09 targ=  3.63895e-09 trig=  2.10850e-09
tplh                =  6.48122e-10 targ=  2.29736e-08 trig=  2.23255e-08
i_vdd_avg           =  -4.74488e-06 from=  5.00000e-09 to=  1.10001e-07
power_avg_uw        =  9.07462e+00


Total analysis time (seconds) = 0.521612

Total elapsed time (seconds) = 0.598 

Total DRAM available = 16384.000 MB.
DRAM currently available =  210.422 MB.
Maximum ngspice program size =   12.562 MB.
Current ngspice program size =   11.688 MB.

