
Note: No compatibility mode selected!


Circuit: INV seed characterization sample 4413028

Doing analysis at TEMP = -11.961800 and TNOM = 27.000000

Using SPARSE 1.3 as Direct Linear Solver

Initial Transient Solution
--------------------------

Node                                   Voltage
----                                   -------
vdd                                    1.77353
in                                           0
out                                    1.77353
vin#branch                                   0
vdd#branch                        -1.78418e-12

 Reference value :  6.30740e-08
No. of Data Rows : 60044

  Measurements for Transient Analysis

tphl                =  2.37632e-10 targ=  2.48188e-09 trig=  2.24425e-09
tplh                =  3.11080e-10 targ=  2.30438e-08 trig=  2.27327e-08
i_vdd_avg           =  -2.11455e-06 from=  5.00000e-09 to=  1.10002e-07
power_avg_uw        =  3.75021e+00


Total analysis time (seconds) = 0.33369

Total elapsed time (seconds) = 0.409 

Total DRAM available = 16384.000 MB.
DRAM currently available =  186.922 MB.
Maximum ngspice program size =   12.562 MB.
Current ngspice program size =   11.594 MB.

