
Note: No compatibility mode selected!


Circuit: NOR2 seed characterization sample 4413041

Doing analysis at TEMP = 72.822700 and TNOM = 27.000000

Using SPARSE 1.3 as Direct Linear Solver

Initial Transient Solution
--------------------------

Node                                   Voltage
----                                   -------
vdd                                    1.85341
in                                           0
out                                    1.85341
pmid                                   1.85341
vin#branch                                   0
vdd#branch                         -5.0841e-12

 Reference value :  4.01204e-08
 Reference value :  9.42897e-08
No. of Data Rows : 60041

  Measurements for Transient Analysis

tphl                =  1.88356e-10 targ=  2.38871e-09 trig=  2.20035e-09
tplh                =  6.96584e-10 targ=  2.32976e-08 trig=  2.26011e-08
i_vdd_avg           =  -2.23203e-06 from=  5.00000e-09 to=  1.10000e-07
power_avg_uw        =  4.13687e+00


Total analysis time (seconds) = 0.53835

Total elapsed time (seconds) = 0.615 

Total DRAM available = 16384.000 MB.
DRAM currently available =  213.500 MB.
Maximum ngspice program size =   12.562 MB.
Current ngspice program size =   11.656 MB.

