
Note: No compatibility mode selected!


Circuit: INV seed characterization sample 4413005

Doing analysis at TEMP = 91.129900 and TNOM = 27.000000

Using SPARSE 1.3 as Direct Linear Solver

Initial Transient Solution
--------------------------

Node                                   Voltage
----                                   -------
vdd                                    1.97379
in                                           0
out                                    1.97379
vin#branch                                   0
vdd#branch                        -3.63526e-12

 Reference value :  6.39550e-08
No. of Data Rows : 60041

  Measurements for Transient Analysis

tphl                =  1.45433e-10 targ=  2.22693e-09 trig=  2.08150e-09
tplh                =  2.22180e-10 targ=  2.24667e-08 trig=  2.22445e-08
i_vdd_avg           =  -1.11487e-06 from=  5.00000e-09 to=  1.10001e-07
power_avg_uw        =  2.20052e+00


Total analysis time (seconds) = 0.319348

Total elapsed time (seconds) = 0.396 

Total DRAM available = 16384.000 MB.
DRAM currently available =  224.953 MB.
Maximum ngspice program size =   12.562 MB.
Current ngspice program size =   11.719 MB.

