
Note: No compatibility mode selected!


Circuit: NAND2 seed characterization sample 4413029

Doing analysis at TEMP = 89.818300 and TNOM = 27.000000

Using SPARSE 1.3 as Direct Linear Solver

Initial Transient Solution
--------------------------

Node                                   Voltage
----                                   -------
vdd                                    1.65391
in                                           0
out                                    1.65391
nmid                                 0.0401028
vin#branch                                   0
vdd#branch                        -1.99949e-12

 Reference value :  3.78772e-08
 Reference value :  9.90181e-08
No. of Data Rows : 60047

  Measurements for Transient Analysis

tphl                =  5.55027e-10 targ=  2.57958e-09 trig=  2.02455e-09
tplh                =  2.11733e-10 targ=  2.22854e-08 trig=  2.20737e-08
i_vdd_avg           =  -1.85203e-06 from=  5.00000e-09 to=  1.10001e-07
power_avg_uw        =  3.06310e+00


Total analysis time (seconds) = 0.481198

Total elapsed time (seconds) = 0.582 

Total DRAM available = 16384.000 MB.
DRAM currently available =  222.516 MB.
Maximum ngspice program size =   13.875 MB.
Current ngspice program size =   13.875 MB.

