
Note: No compatibility mode selected!


Circuit: INV seed characterization sample 4413006

Doing analysis at TEMP = 76.448300 and TNOM = 27.000000

Using SPARSE 1.3 as Direct Linear Solver

Initial Transient Solution
--------------------------

Node                                   Voltage
----                                   -------
vdd                                    1.76585
in                                           0
out                                    1.76585
vin#branch                                   0
vdd#branch                        -2.60759e-12

 Reference value :  6.51847e-08
No. of Data Rows : 60041

  Measurements for Transient Analysis

tphl                =  3.75188e-10 targ=  2.59161e-09 trig=  2.21642e-09
tplh                =  4.20057e-10 targ=  2.30693e-08 trig=  2.26493e-08
i_vdd_avg           =  -2.96888e-06 from=  5.00000e-09 to=  1.10001e-07
power_avg_uw        =  5.24260e+00


Total analysis time (seconds) = 0.312398

Total elapsed time (seconds) = 0.390 

Total DRAM available = 16384.000 MB.
DRAM currently available =  207.547 MB.
Maximum ngspice program size =   12.562 MB.
Current ngspice program size =   11.938 MB.

