
Note: No compatibility mode selected!


Circuit: XOR2 seed characterization sample 4413021

Doing analysis at TEMP = 47.559100 and TNOM = 27.000000

Using SPARSE 1.3 as Direct Linear Solver

Initial Transient Solution
--------------------------

Node                                   Voltage
----                                   -------
vdd                                     1.8003
in                                           0
b                                       1.8003
abar                                    1.8003
bbar                               4.24455e-09
out                                     1.8003
vb#branch                                    0
vin#branch                         1.92336e-12
vdd#branch                        -1.10586e-11

 Reference value :  2.22718e-08
 Reference value :  5.36258e-08
 Reference value :  8.81758e-08
No. of Data Rows : 60041

  Measurements for Transient Analysis

tphl                =  7.71176e-10 targ=  2.95758e-09 trig=  2.18641e-09
tplh                =  1.05046e-09 targ=  2.36097e-08 trig=  2.25592e-08
i_vdd_avg           =  -4.62247e-06 from=  5.00000e-09 to=  1.10001e-07
power_avg_uw        =  8.32184e+00


Total analysis time (seconds) = 0.878485

Total elapsed time (seconds) = 0.958 

Total DRAM available = 16384.000 MB.
DRAM currently available =  189.516 MB.
Maximum ngspice program size =   13.328 MB.
Current ngspice program size =   12.109 MB.

