
Note: No compatibility mode selected!


Circuit: INV seed characterization sample 4413018

Doing analysis at TEMP = 80.811500 and TNOM = 27.000000

Using SPARSE 1.3 as Direct Linear Solver

Initial Transient Solution
--------------------------

Node                                   Voltage
----                                   -------
vdd                                    1.66996
in                                           0
out                                    1.66996
vin#branch                                   0
vdd#branch                        -2.14061e-12

 Reference value :  5.84501e-08
No. of Data Rows : 60047

  Measurements for Transient Analysis

tphl                =  8.78488e-10 targ=  3.11705e-09 trig=  2.23857e-09
tplh                =  1.19986e-09 targ=  2.39156e-08 trig=  2.27157e-08
i_vdd_avg           =  -2.99495e-06 from=  5.00000e-09 to=  1.10001e-07
power_avg_uw        =  5.00144e+00


Total analysis time (seconds) = 0.347422

Total elapsed time (seconds) = 0.430 

Total DRAM available = 16384.000 MB.
DRAM currently available =  226.562 MB.
Maximum ngspice program size =   12.562 MB.
Current ngspice program size =   11.688 MB.

