
Note: No compatibility mode selected!


Circuit: XOR2 seed characterization sample 4413015

Doing analysis at TEMP = -2.717970 and TNOM = 27.000000

Using SPARSE 1.3 as Direct Linear Solver

Initial Transient Solution
--------------------------

Node                                   Voltage
----                                   -------
vdd                                    1.93043
in                                           0
b                                      1.93043
abar                                   1.93043
bbar                               1.88967e-09
out                                    1.93043
vb#branch                                    0
vin#branch                         1.94307e-12
vdd#branch                        -1.16472e-11

 Reference value :  2.24680e-08
 Reference value :  5.29000e-08
 Reference value :  8.29000e-08
 Reference value :  1.12805e-07
No. of Data Rows : 60041

  Measurements for Transient Analysis

tphl                =  3.72716e-10 targ=  2.49721e-09 trig=  2.12449e-09
tplh                =  4.75480e-10 targ=  2.28490e-08 trig=  2.23735e-08
i_vdd_avg           =  -5.06002e-06 from=  5.00000e-09 to=  1.10001e-07
power_avg_uw        =  9.76802e+00


Total analysis time (seconds) = 0.971144

Total elapsed time (seconds) = 1.052 

Total DRAM available = 16384.000 MB.
DRAM currently available =  221.594 MB.
Maximum ngspice program size =   12.578 MB.
Current ngspice program size =   11.625 MB.

