
Note: No compatibility mode selected!


Circuit: XOR2 seed characterization sample 4413014

Doing analysis at TEMP = -12.624600 and TNOM = 27.000000

Using SPARSE 1.3 as Direct Linear Solver

Initial Transient Solution
--------------------------

Node                                   Voltage
----                                   -------
vdd                                    1.85682
in                                           0
b                                      1.85682
abar                                   1.85682
bbar                                 4.564e-09
out                                    1.85682
vb#branch                                    0
vin#branch                         1.86708e-12
vdd#branch                        -1.12014e-11

 Reference value :  2.27216e-08
 Reference value :  5.30876e-08
 Reference value :  8.28716e-08
 Reference value :  1.12712e-07
No. of Data Rows : 60041

  Measurements for Transient Analysis

tphl                =  6.81357e-10 targ=  2.89064e-09 trig=  2.20928e-09
tplh                =  7.24243e-10 targ=  2.33521e-08 trig=  2.26278e-08
i_vdd_avg           =  -3.63064e-06 from=  5.00000e-09 to=  1.10000e-07
power_avg_uw        =  6.74145e+00


Total analysis time (seconds) = 0.973675

Total elapsed time (seconds) = 1.053 

Total DRAM available = 16384.000 MB.
DRAM currently available =  208.297 MB.
Maximum ngspice program size =   12.578 MB.
Current ngspice program size =   11.734 MB.

