
Note: No compatibility mode selected!


Circuit: INV seed characterization sample 4413019

Doing analysis at TEMP = 99.140900 and TNOM = 27.000000

Using SPARSE 1.3 as Direct Linear Solver

Initial Transient Solution
--------------------------

Node                                   Voltage
----                                   -------
vdd                                    1.81911
in                                           0
out                                    1.81911
vin#branch                                   0
vdd#branch                        -3.64216e-12

 Reference value :  6.05164e-08
No. of Data Rows : 60047

  Measurements for Transient Analysis

tphl                =  4.55947e-10 targ=  2.57766e-09 trig=  2.12171e-09
tplh                =  7.35876e-10 targ=  2.31010e-08 trig=  2.23651e-08
i_vdd_avg           =  -2.46691e-06 from=  5.00000e-09 to=  1.10002e-07
power_avg_uw        =  4.48757e+00


Total analysis time (seconds) = 0.339857

Total elapsed time (seconds) = 0.420 

Total DRAM available = 16384.000 MB.
DRAM currently available =  226.562 MB.
Maximum ngspice program size =   12.562 MB.
Current ngspice program size =   11.844 MB.

