
Note: No compatibility mode selected!


Circuit: NAND2 seed characterization sample 4413024

Doing analysis at TEMP = 28.205000 and TNOM = 27.000000

Using SPARSE 1.3 as Direct Linear Solver

Initial Transient Solution
--------------------------

Node                                   Voltage
----                                   -------
vdd                                    1.62145
in                                           0
out                                    1.62145
nmid                                0.00769447
vin#branch                                   0
vdd#branch                        -1.65348e-12

 Reference value :  3.86155e-08
 Reference value :  9.34042e-08
No. of Data Rows : 60047

  Measurements for Transient Analysis

tphl                =  6.05480e-10 targ=  2.76810e-09 trig=  2.16262e-09
tplh                =  3.81430e-10 targ=  2.28693e-08 trig=  2.24878e-08
i_vdd_avg           =  -3.69253e-06 from=  5.00000e-09 to=  1.10001e-07
power_avg_uw        =  5.98725e+00


Total analysis time (seconds) = 0.52048

Total elapsed time (seconds) = 0.602 

Total DRAM available = 16384.000 MB.
DRAM currently available =  208.078 MB.
Maximum ngspice program size =   13.375 MB.
Current ngspice program size =   12.656 MB.

