
Note: No compatibility mode selected!


Circuit: NAND2 seed characterization sample 4413002

Doing analysis at TEMP = 24.130900 and TNOM = 27.000000

Using SPARSE 1.3 as Direct Linear Solver

Initial Transient Solution
--------------------------

Node                                   Voltage
----                                   -------
vdd                                    1.74838
in                                           0
out                                    1.74838
nmid                                0.00236811
vin#branch                                   0
vdd#branch                        -1.76498e-12

 Reference value :  4.10367e-08
 Reference value :  9.68558e-08
No. of Data Rows : 60041

  Measurements for Transient Analysis

tphl                =  1.44533e-09 targ=  3.54075e-09 trig=  2.09542e-09
tplh                =  7.54187e-10 targ=  2.30404e-08 trig=  2.22863e-08
i_vdd_avg           =  -4.06576e-06 from=  5.00000e-09 to=  1.10001e-07
power_avg_uw        =  7.10849e+00


Total analysis time (seconds) = 0.522656

Total elapsed time (seconds) = 0.601 

Total DRAM available = 16384.000 MB.
DRAM currently available =  201.156 MB.
Maximum ngspice program size =   12.562 MB.
Current ngspice program size =   11.625 MB.

