
Note: No compatibility mode selected!


Circuit: INV seed characterization sample 4413007

Doing analysis at TEMP = 47.629300 and TNOM = 27.000000

Using SPARSE 1.3 as Direct Linear Solver

Initial Transient Solution
--------------------------

Node                                   Voltage
----                                   -------
vdd                                     1.7441
in                                           0
out                                     1.7441
vin#branch                                   0
vdd#branch                        -2.01199e-12

 Reference value :  6.59307e-08
No. of Data Rows : 60044

  Measurements for Transient Analysis

tphl                =  1.20496e-10 targ=  2.22741e-09 trig=  2.10692e-09
tplh                =  1.44238e-10 targ=  2.24650e-08 trig=  2.23207e-08
i_vdd_avg           =  -1.44114e-06 from=  5.00000e-09 to=  1.10001e-07
power_avg_uw        =  2.51349e+00


Total analysis time (seconds) = 0.31278

Total elapsed time (seconds) = 0.388 

Total DRAM available = 16384.000 MB.
DRAM currently available =  224.953 MB.
Maximum ngspice program size =   12.562 MB.
Current ngspice program size =   12.156 MB.

