
Note: No compatibility mode selected!


Circuit: NAND2 seed characterization sample 4413025

Doing analysis at TEMP = 13.341700 and TNOM = 27.000000

Using SPARSE 1.3 as Direct Linear Solver

Initial Transient Solution
--------------------------

Node                                   Voltage
----                                   -------
vdd                                    1.77946
in                                           0
out                                    1.77946
nmid                                0.00197438
vin#branch                                   0
vdd#branch                        -1.79501e-12

 Reference value :  3.97820e-08
 Reference value :  9.69855e-08
No. of Data Rows : 60041

  Measurements for Transient Analysis

tphl                =  7.23141e-10 targ=  2.82440e-09 trig=  2.10126e-09
tplh                =  2.98149e-10 targ=  2.26019e-08 trig=  2.23038e-08
i_vdd_avg           =  -4.92019e-06 from=  5.00000e-09 to=  1.10000e-07
power_avg_uw        =  8.75528e+00


Total analysis time (seconds) = 0.504066

Total elapsed time (seconds) = 0.587 

Total DRAM available = 16384.000 MB.
DRAM currently available =  186.922 MB.
Maximum ngspice program size =   12.953 MB.
Current ngspice program size =   12.188 MB.

