
Note: No compatibility mode selected!


Circuit: GF180MCU library cell xor2_4 A1_to_Z__A2=0

Doing analysis at TEMP = 13.201073 and TNOM = 27.000000

Using SPARSE 1.3 as Direct Linear Solver

Initial Transient Solution
--------------------------

Node                                   Voltage
----                                   -------
vdd                                    1.88394
a1                                           0
a2                                           0
xu1.net_2                            0.0397179
xu1.i                                  1.88394
xu1.net_0                          3.31663e-09
xu1.z_neg                              1.88394
z                                   7.8383e-09
xu1.net_1                              1.88394
vfix_a2#branch                               0
vin#branch                                   0
vdd#branch                        -1.48766e-11

 Reference value :  3.46625e-08
 Reference value :  7.61260e-08
 Reference value :  1.15656e-07
 Reference value :  1.58009e-07
 Reference value :  2.00741e-07
 Reference value :  2.42536e-07
 Reference value :  2.85539e-07
 Reference value :  3.26204e-07
No. of Data Rows : 68034

  Measurements for Transient Analysis

tplh                =  1.70922e-09 targ=  3.12935e-08 trig=  2.95842e-08
tphl                =  3.48107e-09 targ=  1.14234e-07 trig=  1.10753e-07
i_vdd_avg           =  -2.53287e-06 from=  1.00000e-08 to=  3.30004e-07
power_avg_uw        =  4.77178e+00


Total analysis time (seconds) = 4.62709

Total elapsed time (seconds) = 4.687 

Total DRAM available = 16384.000 MB.
DRAM currently available =   99.844 MB.
Maximum ngspice program size =   12.906 MB.
Current ngspice program size =   12.906 MB.

