
Note: No compatibility mode selected!


Circuit: GF180MCU library cell nand3_1 A1_to_ZN__A2=1,A3=1

Doing analysis at TEMP = 34.763757 and TNOM = 27.000000

Using SPARSE 1.3 as Direct Linear Solver

Initial Transient Solution
--------------------------

Node                                   Voltage
----                                   -------
vdd                                    1.64329
a1                                           0
a2                                     1.64329
a3                                     1.64329
xu1.net_1                          8.92856e-09
xu1.net_0                          1.78571e-08
zn                                     1.64329
vfix_a3#branch                               0
vfix_a2#branch                               0
vin#branch                                   0
vdd#branch                        -3.49284e-12

 Reference value :  8.98044e-08
 Reference value :  2.00144e-07
 Reference value :  3.01636e-07
No. of Data Rows : 68030

  Measurements for Transient Analysis

tphl                =  6.35804e-09 targ=  3.47665e-08 trig=  2.84084e-08
tplh                =  7.79014e-09 targ=  1.15015e-07 trig=  1.07225e-07
i_vdd_avg           =  -1.74062e-06 from=  1.00000e-08 to=  3.30001e-07
power_avg_uw        =  2.86034e+00


Total analysis time (seconds) = 1.74525

Total elapsed time (seconds) = 1.809 

Total DRAM available = 16384.000 MB.
DRAM currently available =   99.844 MB.
Maximum ngspice program size =   13.828 MB.
Current ngspice program size =   13.828 MB.

