
Note: No compatibility mode selected!


Circuit: GF180MCU library cell nand2_1 A1_to_ZN__A2=1

Doing analysis at TEMP = 30.311232 and TNOM = 27.000000

Using SPARSE 1.3 as Direct Linear Solver

Initial Transient Solution
--------------------------

Node                                   Voltage
----                                   -------
vdd                                    1.67948
a1                                           0
a2                                     1.67948
xu1.net_0                          6.43084e-09
zn                                     1.67948
vfix_a2#branch                               0
vin#branch                                   0
vdd#branch                        -3.06541e-12

 Reference value :  1.30207e-07
 Reference value :  2.92562e-07
No. of Data Rows : 68032

  Measurements for Transient Analysis

tphl                =  1.94495e-09 targ=  2.77823e-08 trig=  2.58374e-08
tplh                =  2.73596e-09 targ=  1.02248e-07 trig=  9.95122e-08
i_vdd_avg           =  -6.86543e-07 from=  1.00000e-08 to=  3.30002e-07
power_avg_uw        =  1.15304e+00


Total analysis time (seconds) = 1.04249

Total elapsed time (seconds) = 1.101 

Total DRAM available = 16384.000 MB.
DRAM currently available =  113.016 MB.
Maximum ngspice program size =   14.453 MB.
Current ngspice program size =   14.453 MB.

