
Note: No compatibility mode selected!


Circuit: GF180MCU library cell aoi21_4 A1_to_ZN__A2=1,B=0

Doing analysis at TEMP = 74.627044 and TNOM = 27.000000

Using SPARSE 1.3 as Direct Linear Solver

Initial Transient Solution
--------------------------

Node                                   Voltage
----                                   -------
vdd                                    1.80578
a1                                           0
a2                                     1.80578
b                                            0
xu1.net_0_0                        1.07443e-07
zn                                     1.80577
xu1.net_0_1                        1.07443e-07
xu1.net_0_2                        1.07443e-07
xu1.net_0_3                        1.07443e-07
xu1.net_1                              1.80578
vfix_b#branch                                0
vfix_a2#branch                               0
vin#branch                                   0
vdd#branch                        -1.99936e-10

 Reference value :  2.50075e-08
 Reference value :  5.69398e-08
 Reference value :  8.87798e-08
 Reference value :  1.19937e-07
 Reference value :  1.53332e-07
 Reference value :  1.85353e-07
 Reference value :  2.19305e-07
 Reference value :  2.50890e-07
 Reference value :  2.81907e-07
 Reference value :  3.12567e-07
No. of Data Rows : 68030

  Measurements for Transient Analysis

tphl                =  2.05573e-09 targ=  3.14094e-08 trig=  2.93536e-08
tplh                =  4.87521e-09 targ=  1.14936e-07 trig=  1.10061e-07
i_vdd_avg           =  -2.47911e-06 from=  1.00000e-08 to=  3.30002e-07
power_avg_uw        =  4.47672e+00


Total analysis time (seconds) = 6.28086

Total elapsed time (seconds) = 6.340 

Total DRAM available = 16384.000 MB.
DRAM currently available =   88.781 MB.
Maximum ngspice program size =   13.734 MB.
Current ngspice program size =   13.734 MB.

