
Note: No compatibility mode selected!


Circuit: GF180MCU library cell inv_4 I_to_ZN

Doing analysis at TEMP = -4.256715 and TNOM = 27.000000

Using SPARSE 1.3 as Direct Linear Solver

Initial Transient Solution
--------------------------

Node                                   Voltage
----                                   -------
vdd                                    1.72607
i                                            0
zn                                     1.72607
vin#branch                                   0
vdd#branch                        -7.30445e-12

 Reference value :  6.67701e-08
 Reference value :  1.63643e-07
 Reference value :  2.51920e-07
 Reference value :  3.38298e-07
No. of Data Rows : 68034

  Measurements for Transient Analysis

tphl                =  -1.74657e-10 targ=  2.76892e-08 trig=  2.78638e-08
tplh                =  1.00559e-09 targ=  1.06597e-07 trig=  1.05591e-07
i_vdd_avg           =  -2.58777e-07 from=  1.00000e-08 to=  3.30003e-07
power_avg_uw        =  4.46667e-01


Total analysis time (seconds) = 2.13762

Total elapsed time (seconds) = 2.202 

Total DRAM available = 16384.000 MB.
DRAM currently available =  106.641 MB.
Maximum ngspice program size =   14.297 MB.
Current ngspice program size =   14.297 MB.

