
Note: No compatibility mode selected!


Circuit: GF180MCU library cell xor2_1 A1_to_Z__A2=0

Doing analysis at TEMP = 65.840354 and TNOM = 27.000000

Using SPARSE 1.3 as Direct Linear Solver

Initial Transient Solution
--------------------------

Node                                   Voltage
----                                   -------
vdd                                    1.97524
a1                                           0
a2                                           0
xu1.i                                  1.97523
z                                  3.52613e-08
xu1.net_0                          1.74222e-08
xu1.net_2                              1.97523
xu1.net_1                             0.618128
vfix_a2#branch                               0
vin#branch                                   0
vdd#branch                        -9.06137e-11

 Reference value :  5.41817e-08
 Reference value :  1.22786e-07
 Reference value :  1.94497e-07
 Reference value :  2.64441e-07
 Reference value :  3.28616e-07
No. of Data Rows : 68032

  Measurements for Transient Analysis

tplh                =  5.07356e-09 targ=  2.99532e-08 trig=  2.48796e-08
tphl                =  1.99505e-09 targ=  9.86339e-08 trig=  9.66388e-08
i_vdd_avg           =  -1.55906e-06 from=  1.00000e-08 to=  3.30001e-07
power_avg_uw        =  3.07950e+00


Total analysis time (seconds) = 2.79372

Total elapsed time (seconds) = 2.856 

Total DRAM available = 16384.000 MB.
DRAM currently available =  108.094 MB.
Maximum ngspice program size =   13.328 MB.
Current ngspice program size =   13.109 MB.

