
Note: No compatibility mode selected!


Circuit: GF180MCU library cell nor2_4 A1_to_ZN__A2=0

Doing analysis at TEMP = 96.510717 and TNOM = 27.000000

Using SPARSE 1.3 as Direct Linear Solver

Initial Transient Solution
--------------------------

Node                                   Voltage
----                                   -------
vdd                                    1.87982
a1                                           0
a2                                           0
zn                                     1.87982
xu1.net_0_0                            1.87982
xu1.net_0_1                            1.87982
xu1.net_0_2                            1.87982
xu1.net_0_3                            1.87982
vfix_a2#branch                               0
vin#branch                                   0
vdd#branch                        -5.54705e-10

 Reference value :  3.40484e-08
 Reference value :  7.97084e-08
 Reference value :  1.25264e-07
 Reference value :  1.68989e-07
 Reference value :  2.12333e-07
 Reference value :  2.54588e-07
 Reference value :  3.01554e-07
No. of Data Rows : 68032

  Measurements for Transient Analysis

tphl                =  6.05184e-10 targ=  2.48056e-08 trig=  2.42005e-08
tplh                =  1.76864e-09 targ=  9.63700e-08 trig=  9.46014e-08
i_vdd_avg           =  -1.75636e-06 from=  1.00000e-08 to=  3.30004e-07
power_avg_uw        =  3.30164e+00


Total analysis time (seconds) = 4.36595

Total elapsed time (seconds) = 4.428 

Total DRAM available = 16384.000 MB.
DRAM currently available =  130.328 MB.
Maximum ngspice program size =   13.469 MB.
Current ngspice program size =   13.469 MB.

