
Note: No compatibility mode selected!


Circuit: GF180MCU library cell inv_4 I_to_ZN

Doing analysis at TEMP = -12.806300 and TNOM = 27.000000

Using SPARSE 1.3 as Direct Linear Solver

Initial Transient Solution
--------------------------

Node                                   Voltage
----                                   -------
vdd                                    1.89828
i                                            0
zn                                     1.89828
vin#branch                                   0
vdd#branch                        -7.81073e-12

 Reference value :  6.66233e-08
 Reference value :  1.54199e-07
 Reference value :  2.42633e-07
 Reference value :  3.31639e-07
No. of Data Rows : 68032

  Measurements for Transient Analysis

tphl                =  9.25320e-10 targ=  2.89482e-08 trig=  2.80229e-08
tplh                =  2.45506e-09 targ=  1.08524e-07 trig=  1.06069e-07
i_vdd_avg           =  -1.79605e-06 from=  1.00000e-08 to=  3.30004e-07
power_avg_uw        =  3.40939e+00


Total analysis time (seconds) = 2.22074

Total elapsed time (seconds) = 2.280 

Total DRAM available = 16384.000 MB.
DRAM currently available =   95.531 MB.
Maximum ngspice program size =   14.422 MB.
Current ngspice program size =   14.422 MB.

