
Note: No compatibility mode selected!


Circuit: GF180MCU library cell aoi21_1 A1_to_ZN__A2=1,B=0

Doing analysis at TEMP = 47.644123 and TNOM = 27.000000

Using SPARSE 1.3 as Direct Linear Solver

Initial Transient Solution
--------------------------

Node                                   Voltage
----                                   -------
vdd                                    1.96095
a1                                           0
a2                                     1.96095
b                                            0
xu1.net_0                          2.05956e-08
zn                                     1.96095
xu1.net_1                              1.96095
vfix_b#branch                                0
vfix_a2#branch                               0
vin#branch                                   0
vdd#branch                        -1.45748e-11

 Reference value :  8.11216e-08
 Reference value :  1.91628e-07
 Reference value :  3.10476e-07
No. of Data Rows : 68032

  Measurements for Transient Analysis

tphl                =  5.10129e-09 targ=  3.50983e-08 trig=  2.99970e-08
tplh                =  1.04552e-08 targ=  1.22446e-07 trig=  1.11991e-07
i_vdd_avg           =  -2.46412e-06 from=  1.00000e-08 to=  3.30001e-07
power_avg_uw        =  4.83202e+00


Total analysis time (seconds) = 1.732

Total elapsed time (seconds) = 1.802 

Total DRAM available = 16384.000 MB.
DRAM currently available =   83.812 MB.
Maximum ngspice program size =   16.859 MB.
Current ngspice program size =   16.859 MB.

