
Note: No compatibility mode selected!


Circuit: GF180MCU library cell aoi21_4 A1_to_ZN__A2=1,B=0

Doing analysis at TEMP = 112.991780 and TNOM = 27.000000

Using SPARSE 1.3 as Direct Linear Solver

Initial Transient Solution
--------------------------

Node                                   Voltage
----                                   -------
vdd                                    1.93985
a1                                           0
a2                                     1.93985
b                                            0
xu1.net_0_0                        7.35112e-07
zn                                     1.93985
xu1.net_0_1                        7.35112e-07
xu1.net_0_2                        7.35112e-07
xu1.net_0_3                        7.35112e-07
xu1.net_1                              1.93985
vfix_b#branch                                0
vfix_a2#branch                               0
vin#branch                                   0
vdd#branch                        -1.23238e-09

 Reference value :  2.67525e-08
 Reference value :  5.81594e-08
 Reference value :  9.08994e-08
 Reference value :  1.21371e-07
 Reference value :  1.52231e-07
 Reference value :  1.83451e-07
 Reference value :  2.15549e-07
 Reference value :  2.47134e-07
 Reference value :  2.79126e-07
 Reference value :  3.10726e-07
No. of Data Rows : 68030

  Measurements for Transient Analysis

tphl                =  6.69336e-10 targ=  2.64728e-08 trig=  2.58035e-08
tplh                =  1.61019e-09 targ=  1.01021e-07 trig=  9.94104e-08
i_vdd_avg           =  -1.01320e-06 from=  1.00000e-08 to=  3.30001e-07
power_avg_uw        =  1.96546e+00


Total analysis time (seconds) = 6.1543

Total elapsed time (seconds) = 6.213 

Total DRAM available = 16384.000 MB.
DRAM currently available =  100.031 MB.
Maximum ngspice program size =   13.953 MB.
Current ngspice program size =   13.953 MB.

