
Note: No compatibility mode selected!


Circuit: GF180MCU library cell oai21_4 A1_to_ZN__A2=0,B=1

Doing analysis at TEMP = 108.526550 and TNOM = 27.000000

Using SPARSE 1.3 as Direct Linear Solver

Initial Transient Solution
--------------------------

Node                                   Voltage
----                                   -------
vdd                                    1.79248
a1                                           0
a2                                           0
b                                      1.79248
zn                                     1.79248
xu1.net_0                          1.21526e-06
xu1.net_1_0                            1.79248
xu1.net_1_1                            1.79248
xu1.net_1_2                            1.79248
xu1.net_1_3                            1.79248
vfix_b#branch                                0
vfix_a2#branch                               0
vin#branch                                   0
vdd#branch                        -9.37476e-10

 Reference value :  2.33964e-08
 Reference value :  5.59707e-08
 Reference value :  8.90057e-08
 Reference value :  1.21374e-07
 Reference value :  1.52534e-07
 Reference value :  1.85623e-07
 Reference value :  2.16176e-07
 Reference value :  2.50401e-07
 Reference value :  2.81374e-07
 Reference value :  3.12474e-07
No. of Data Rows : 68034

  Measurements for Transient Analysis

tphl                =  1.72056e-09 targ=  2.82972e-08 trig=  2.65766e-08
tplh                =  3.79479e-09 targ=  1.05525e-07 trig=  1.01730e-07
i_vdd_avg           =  -2.24410e-06 from=  1.00000e-08 to=  3.30004e-07
power_avg_uw        =  4.02252e+00


Total analysis time (seconds) = 6.14518

Total elapsed time (seconds) = 6.202 

Total DRAM available = 16384.000 MB.
DRAM currently available =  126.922 MB.
Maximum ngspice program size =   13.656 MB.
Current ngspice program size =   13.656 MB.

