
Note: No compatibility mode selected!


Circuit: GF180MCU library cell nand2_1 A1_to_ZN__A2=1

Doing analysis at TEMP = -32.261610 and TNOM = 27.000000

Using SPARSE 1.3 as Direct Linear Solver

Initial Transient Solution
--------------------------

Node                                   Voltage
----                                   -------
vdd                                    1.79654
a1                                           0
a2                                     1.79654
xu1.net_0                          2.01917e-11
zn                                     1.79654
vfix_a2#branch                               0
vin#branch                                   0
vdd#branch                        -1.81216e-12

 Reference value :  9.71283e-08
 Reference value :  2.45323e-07
No. of Data Rows : 68032

  Measurements for Transient Analysis

tphl                =  2.77607e-10 targ=  3.01930e-08 trig=  2.99154e-08
tplh                =  1.98689e-09 targ=  1.13733e-07 trig=  1.11746e-07
i_vdd_avg           =  -1.49548e-07 from=  1.00000e-08 to=  3.30004e-07
power_avg_uw        =  2.68669e-01


Total analysis time (seconds) = 1.31797

Total elapsed time (seconds) = 1.393 

Total DRAM available = 16384.000 MB.
DRAM currently available =   89.953 MB.
Maximum ngspice program size =   15.953 MB.
Current ngspice program size =   15.953 MB.

