
Note: No compatibility mode selected!


Circuit: GF180MCU library cell inv_1 I_to_ZN

Doing analysis at TEMP = 15.657063 and TNOM = 27.000000

Using SPARSE 1.3 as Direct Linear Solver

Initial Transient Solution
--------------------------

Node                                   Voltage
----                                   -------
vdd                                    1.90565
i                                            0
zn                                     1.90565
vin#branch                                   0
vdd#branch                         -2.4357e-12

 Reference value :  2.10339e-07
No. of Data Rows : 68030

  Measurements for Transient Analysis

tphl                =  2.04712e-09 targ=  3.15830e-08 trig=  2.95359e-08
tplh                =  4.39132e-09 targ=  1.14999e-07 trig=  1.10608e-07
i_vdd_avg           =  -1.04756e-06 from=  1.00000e-08 to=  3.30001e-07
power_avg_uw        =  1.99629e+00


Total analysis time (seconds) = 0.596221

Total elapsed time (seconds) = 0.652 

Total DRAM available = 16384.000 MB.
DRAM currently available =  108.812 MB.
Maximum ngspice program size =   13.031 MB.
Current ngspice program size =   13.031 MB.

