
Note: No compatibility mode selected!


Circuit: GF180MCU library cell xor2_1 A1_to_Z__A2=0

Doing analysis at TEMP = 3.449162 and TNOM = 27.000000

Using SPARSE 1.3 as Direct Linear Solver

Initial Transient Solution
--------------------------

Node                                   Voltage
----                                   -------
vdd                                    1.78599
a1                                           0
a2                                           0
xu1.i                                  1.78599
z                                  2.80126e-08
xu1.net_0                          7.10236e-09
xu1.net_2                              1.78599
xu1.net_1                             0.680651
vfix_a2#branch                               0
vin#branch                                   0
vdd#branch                         -1.1932e-11

 Reference value :  5.14241e-08
 Reference value :  1.19936e-07
 Reference value :  1.91449e-07
 Reference value :  2.64699e-07
 Reference value :  3.31746e-07
No. of Data Rows : 68030

  Measurements for Transient Analysis

tplh                =  6.63656e-09 targ=  3.43199e-08 trig=  2.76833e-08
tphl                =  3.28286e-09 targ=  1.08333e-07 trig=  1.05050e-07
i_vdd_avg           =  -1.77062e-06 from=  1.00000e-08 to=  3.30001e-07
power_avg_uw        =  3.16232e+00


Total analysis time (seconds) = 2.34615

Total elapsed time (seconds) = 2.412 

Total DRAM available = 16384.000 MB.
DRAM currently available =  136.797 MB.
Maximum ngspice program size =   17.422 MB.
Current ngspice program size =   17.422 MB.

