
Note: No compatibility mode selected!


Circuit: GF180MCU library cell oai21_1 A1_to_ZN__A2=0,B=1

Doing analysis at TEMP = 42.501553 and TNOM = 27.000000

Using SPARSE 1.3 as Direct Linear Solver

Initial Transient Solution
--------------------------

Node                                   Voltage
----                                   -------
vdd                                    1.93881
a1                                           0
a2                                           0
b                                      1.93881
zn                                     1.93881
xu1.net_0                          2.92915e-08
xu1.net_1                              1.93881
vfix_b#branch                                0
vfix_a2#branch                               0
vin#branch                                   0
vdd#branch                        -1.10245e-11

 Reference value :  9.54006e-08
 Reference value :  2.10691e-07
 Reference value :  3.20714e-07
No. of Data Rows : 68034

  Measurements for Transient Analysis

tphl                =  3.37517e-09 targ=  2.84392e-08 trig=  2.50641e-08
tplh                =  8.06652e-09 targ=  1.05259e-07 trig=  9.71922e-08
i_vdd_avg           =  -2.31577e-06 from=  1.00000e-08 to=  3.30004e-07
power_avg_uw        =  4.48983e+00


Total analysis time (seconds) = 1.5908

Total elapsed time (seconds) = 1.650 

Total DRAM available = 16384.000 MB.
DRAM currently available =  119.359 MB.
Maximum ngspice program size =   15.828 MB.
Current ngspice program size =   15.828 MB.

