
Note: No compatibility mode selected!


Circuit: GF180MCU library cell aoi21_1 A1_to_ZN__A2=1,B=0

Doing analysis at TEMP = 86.624138 and TNOM = 27.000000

Using SPARSE 1.3 as Direct Linear Solver

Initial Transient Solution
--------------------------

Node                                   Voltage
----                                   -------
vdd                                    1.81956
a1                                           0
a2                                     1.81956
b                                            0
xu1.net_0                          2.05342e-07
zn                                     1.81956
xu1.net_1                              1.81956
vfix_b#branch                                0
vfix_a2#branch                               0
vin#branch                                   0
vdd#branch                        -8.96779e-11

 Reference value :  8.24183e-08
 Reference value :  1.86208e-07
 Reference value :  3.05639e-07
No. of Data Rows : 68032

  Measurements for Transient Analysis

tphl                =  2.98927e-09 targ=  2.77472e-08 trig=  2.47579e-08
tplh                =  7.29283e-09 targ=  1.03566e-07 trig=  9.62737e-08
i_vdd_avg           =  -1.67967e-06 from=  1.00000e-08 to=  3.30004e-07
power_avg_uw        =  3.05625e+00


Total analysis time (seconds) = 1.69397

Total elapsed time (seconds) = 1.757 

Total DRAM available = 16384.000 MB.
DRAM currently available =   88.781 MB.
Maximum ngspice program size =   16.062 MB.
Current ngspice program size =   16.062 MB.

