
Note: No compatibility mode selected!


Circuit: GF180MCU library cell mux2_4 I0_to_Z__I1=0,S=0

Doing analysis at TEMP = 116.407680 and TNOM = 27.000000

Using SPARSE 1.3 as Direct Linear Solver

Initial Transient Solution
--------------------------

Node                                   Voltage
----                                   -------
vdd                                     1.7148
i0                                           0
i1                                           0
s                                            0
xu1.int04                              1.71479
z                                  3.14332e-08
xu1.net_1                             0.051419
xu1.net_3                              1.27237
xu1.sel1_n                             1.71479
xu1.net_0                               1.7148
xu1.net_2                              1.71479
vfix_s#branch                                0
vfix_i1#branch                               0
vin#branch                                   0
vdd#branch                        -3.43909e-10

 Reference value :  3.27679e-08
 Reference value :  7.31929e-08
 Reference value :  1.14398e-07
 Reference value :  1.58563e-07
 Reference value :  2.03533e-07
 Reference value :  2.44023e-07
 Reference value :  2.84873e-07
 Reference value :  3.27198e-07
No. of Data Rows : 68032

  Measurements for Transient Analysis

tplh                =  2.11485e-09 targ=  2.94601e-08 trig=  2.73452e-08
tphl                =  2.91594e-09 targ=  1.06952e-07 trig=  1.04036e-07
i_vdd_avg           =  -2.09321e-06 from=  1.00000e-08 to=  3.30003e-07
power_avg_uw        =  3.58942e+00


Total analysis time (seconds) = 4.73927

Total elapsed time (seconds) = 4.801 

Total DRAM available = 16384.000 MB.
DRAM currently available =   88.781 MB.
Maximum ngspice program size =   14.953 MB.
Current ngspice program size =   14.953 MB.

