
Note: No compatibility mode selected!


Circuit: GF180MCU library cell mux2_1 I0_to_Z__I1=0,S=0

Doing analysis at TEMP = 30.195498 and TNOM = 27.000000

Using SPARSE 1.3 as Direct Linear Solver

Initial Transient Solution
--------------------------

Node                                   Voltage
----                                   -------
vdd                                    1.67423
i0                                           0
i1                                           0
s                                            0
xu1.int04                              1.67423
z                                   8.3755e-09
xu1.net_1                            0.0434028
xu1.net_3                              1.25727
xu1.sel1_n                             1.67423
xu1.net_0                              1.67423
xu1.net_2                              1.67423
vfix_s#branch                                0
vfix_i1#branch                               0
vin#branch                                   0
vdd#branch                        -1.80387e-11

 Reference value :  4.37941e-08
 Reference value :  1.03564e-07
 Reference value :  1.61271e-07
 Reference value :  2.20579e-07
 Reference value :  2.80016e-07
 Reference value :  3.38966e-07
No. of Data Rows : 68030

  Measurements for Transient Analysis

tplh                =  3.30775e-09 targ=  2.97285e-08 trig=  2.64208e-08
tphl                =  2.89873e-09 targ=  1.04161e-07 trig=  1.01262e-07
i_vdd_avg           =  -1.22822e-06 from=  1.00000e-08 to=  3.30001e-07
power_avg_uw        =  2.05632e+00


Total analysis time (seconds) = 3.20391

Total elapsed time (seconds) = 3.265 

Total DRAM available = 16384.000 MB.
DRAM currently available =  109.062 MB.
Maximum ngspice program size =   13.250 MB.
Current ngspice program size =   12.953 MB.

