
Note: No compatibility mode selected!


Circuit: GF180MCU library cell aoi21_1 A1_to_ZN__A2=1,B=0

Doing analysis at TEMP = 40.055392 and TNOM = 27.000000

Using SPARSE 1.3 as Direct Linear Solver

Initial Transient Solution
--------------------------

Node                                   Voltage
----                                   -------
vdd                                    1.74921
a1                                           0
a2                                     1.74921
b                                            0
xu1.net_0                          1.26828e-08
zn                                     1.74921
xu1.net_1                              1.74921
vfix_b#branch                                0
vfix_a2#branch                               0
vin#branch                                   0
vdd#branch                        -9.45216e-12

 Reference value :  8.90423e-08
 Reference value :  1.98787e-07
 Reference value :  3.06722e-07
No. of Data Rows : 68032

  Measurements for Transient Analysis

tphl                =  1.36010e-09 targ=  2.88725e-08 trig=  2.75124e-08
tplh                =  3.15343e-09 targ=  1.07691e-07 trig=  1.04537e-07
i_vdd_avg           =  -3.57993e-07 from=  1.00000e-08 to=  3.30002e-07
power_avg_uw        =  6.26205e-01


Total analysis time (seconds) = 1.67694

Total elapsed time (seconds) = 1.739 

Total DRAM available = 16384.000 MB.
DRAM currently available =  104.875 MB.
Maximum ngspice program size =   13.500 MB.
Current ngspice program size =   13.500 MB.

