
Note: No compatibility mode selected!


Circuit: GF180MCU library cell inv_4 I_to_ZN

Doing analysis at TEMP = 58.294257 and TNOM = 27.000000

Using SPARSE 1.3 as Direct Linear Solver

Initial Transient Solution
--------------------------

Node                                   Voltage
----                                   -------
vdd                                    1.95669
i                                            0
zn                                     1.95669
vin#branch                                   0
vdd#branch                        -4.60636e-11

 Reference value :  6.39163e-08
 Reference value :  1.52255e-07
 Reference value :  2.41126e-07
 Reference value :  3.26775e-07
No. of Data Rows : 68032

  Measurements for Transient Analysis

tphl                =  5.00068e-10 targ=  2.46070e-08 trig=  2.41069e-08
tplh                =  1.03856e-09 targ=  9.53593e-08 trig=  9.43207e-08
i_vdd_avg           =  -2.42242e-06 from=  1.00000e-08 to=  3.30000e-07
power_avg_uw        =  4.73992e+00


Total analysis time (seconds) = 2.24628

Total elapsed time (seconds) = 2.323 

Total DRAM available = 16384.000 MB.
DRAM currently available =   77.750 MB.
Maximum ngspice program size =   16.984 MB.
Current ngspice program size =   16.984 MB.

