
Note: No compatibility mode selected!


Circuit: GF180MCU library cell mux2_1 I0_to_Z__I1=0,S=0

Doing analysis at TEMP = 120.379810 and TNOM = 27.000000

Using SPARSE 1.3 as Direct Linear Solver

Initial Transient Solution
--------------------------

Node                                   Voltage
----                                   -------
vdd                                    1.89576
i0                                           0
i1                                           0
s                                            0
xu1.int04                              1.89574
z                                  3.57845e-08
xu1.net_1                            0.0561614
xu1.net_3                              1.44096
xu1.sel1_n                             1.89575
xu1.net_0                              1.89576
xu1.net_2                              1.89575
vfix_s#branch                                0
vfix_i1#branch                               0
vin#branch                                   0
vdd#branch                        -8.55051e-10

 Reference value :  4.27677e-08
 Reference value :  9.96877e-08
 Reference value :  1.60953e-07
 Reference value :  2.24193e-07
 Reference value :  2.83348e-07
No. of Data Rows : 68032

  Measurements for Transient Analysis

tplh                =  2.25916e-09 targ=  2.94318e-08 trig=  2.71726e-08
tphl                =  2.74084e-09 targ=  1.06259e-07 trig=  1.03518e-07
i_vdd_avg           =  -1.13953e-06 from=  1.00000e-08 to=  3.30003e-07
power_avg_uw        =  2.16028e+00


Total analysis time (seconds) = 3.24434

Total elapsed time (seconds) = 3.314 

Total DRAM available = 16384.000 MB.
DRAM currently available =  120.156 MB.
Maximum ngspice program size =   13.547 MB.
Current ngspice program size =   13.547 MB.

