
Note: No compatibility mode selected!


Circuit: GF180MCU library cell inv_1 I_to_ZN

Doing analysis at TEMP = 108.863330 and TNOM = 27.000000

Using SPARSE 1.3 as Direct Linear Solver

Initial Transient Solution
--------------------------

Node                                   Voltage
----                                   -------
vdd                                     1.9211
i                                            0
zn                                     1.92109
vin#branch                                   0
vdd#branch                        -1.26109e-10

 Reference value :  1.83268e-07
No. of Data Rows : 68032

  Measurements for Transient Analysis

tphl                =  4.67432e-10 targ=  2.48376e-08 trig=  2.43701e-08
tplh                =  8.60506e-10 targ=  9.59710e-08 trig=  9.51104e-08
i_vdd_avg           =  -3.82497e-07 from=  1.00000e-08 to=  3.30003e-07
power_avg_uw        =  7.34813e-01


Total analysis time (seconds) = 0.80558

Total elapsed time (seconds) = 0.873 

Total DRAM available = 16384.000 MB.
DRAM currently available =   89.953 MB.
Maximum ngspice program size =   16.297 MB.
Current ngspice program size =   16.297 MB.

