
Note: No compatibility mode selected!


Circuit: GF180MCU library cell inv_1 I_to_ZN

Doing analysis at TEMP = -19.240146 and TNOM = 27.000000

Using SPARSE 1.3 as Direct Linear Solver

Initial Transient Solution
--------------------------

Node                                   Voltage
----                                   -------
vdd                                    1.70655
i                                            0
zn                                     1.70655
vin#branch                                   0
vdd#branch                        -1.73796e-12

 Reference value :  1.97333e-07
No. of Data Rows : 68032

  Measurements for Transient Analysis

tphl                =  3.90988e-09 targ=  3.23124e-08 trig=  2.84025e-08
tplh                =  6.98875e-09 targ=  1.14196e-07 trig=  1.07208e-07
i_vdd_avg           =  -2.15346e-06 from=  1.00000e-08 to=  3.30003e-07
power_avg_uw        =  3.67498e+00


Total analysis time (seconds) = 0.749471

Total elapsed time (seconds) = 0.808 

Total DRAM available = 16384.000 MB.
DRAM currently available =  171.297 MB.
Maximum ngspice program size =   13.266 MB.
Current ngspice program size =   13.266 MB.

