
Note: No compatibility mode selected!


Circuit: GF180MCU library cell mux2_4 I0_to_Z__I1=0,S=0

Doing analysis at TEMP = 9.994574 and TNOM = 27.000000

Using SPARSE 1.3 as Direct Linear Solver

Initial Transient Solution
--------------------------

Node                                   Voltage
----                                   -------
vdd                                    1.77729
i0                                           0
i1                                           0
s                                            0
xu1.int04                              1.77729
z                                  7.81855e-09
xu1.net_1                            0.0262374
xu1.net_3                              1.27391
xu1.sel1_n                             1.77729
xu1.net_0                              1.77729
xu1.net_2                              1.77729
vfix_s#branch                                0
vfix_i1#branch                               0
vin#branch                                   0
vdd#branch                        -1.61446e-11

 Reference value :  3.36801e-08
 Reference value :  7.43751e-08
 Reference value :  1.14678e-07
 Reference value :  1.55423e-07
 Reference value :  2.04150e-07
 Reference value :  2.45930e-07
 Reference value :  2.86333e-07
 Reference value :  3.29933e-07
No. of Data Rows : 68034

  Measurements for Transient Analysis

tplh                =  1.00694e-09 targ=  2.67633e-08 trig=  2.57563e-08
tphl                =  1.66762e-09 targ=  1.00937e-07 trig=  9.92690e-08
i_vdd_avg           =  -5.86288e-07 from=  1.00000e-08 to=  3.30003e-07
power_avg_uw        =  1.04200e+00


Total analysis time (seconds) = 4.66568

Total elapsed time (seconds) = 4.725 

Total DRAM available = 16384.000 MB.
DRAM currently available =  137.125 MB.
Maximum ngspice program size =   13.031 MB.
Current ngspice program size =   13.031 MB.

