
Note: No compatibility mode selected!


Circuit: GF180MCU library cell nor2_1 A1_to_ZN__A2=0

Doing analysis at TEMP = -9.376116 and TNOM = 27.000000

Using SPARSE 1.3 as Direct Linear Solver

Initial Transient Solution
--------------------------

Node                                   Voltage
----                                   -------
vdd                                    1.65292
a1                                           0
a2                                           0
zn                                     1.65292
xu1.net_0                              1.65292
vfix_a2#branch                               0
vin#branch                                   0
vdd#branch                        -3.44474e-12

 Reference value :  1.28634e-07
 Reference value :  2.75209e-07
No. of Data Rows : 68034

  Measurements for Transient Analysis

tphl                =  9.75104e-11 targ=  2.84166e-08 trig=  2.83190e-08
tplh                =  1.58240e-09 targ=  1.08540e-07 trig=  1.06957e-07
i_vdd_avg           =  -6.14751e-08 from=  1.00000e-08 to=  3.30004e-07
power_avg_uw        =  1.01614e-01


Total analysis time (seconds) = 1.1607

Total elapsed time (seconds) = 1.216 

Total DRAM available = 16384.000 MB.
DRAM currently available =   77.750 MB.
Maximum ngspice program size =   12.859 MB.
Current ngspice program size =   12.547 MB.

