
Note: No compatibility mode selected!


Circuit: GF180MCU library cell mux2_4 I0_to_Z__I1=0,S=0

Doing analysis at TEMP = -36.626672 and TNOM = 27.000000

Using SPARSE 1.3 as Direct Linear Solver

Initial Transient Solution
--------------------------

Node                                   Voltage
----                                   -------
vdd                                    1.80603
i0                                           0
i1                                           0
s                                            0
xu1.int04                              1.80603
z                                  6.76075e-09
xu1.net_1                           0.00110869
xu1.net_3                              1.21941
xu1.sel1_n                             1.80603
xu1.net_0                              1.80603
xu1.net_2                              1.80603
vfix_s#branch                                0
vfix_i1#branch                               0
vin#branch                                   0
vdd#branch                        -1.55998e-11

 Reference value :  3.52456e-08
 Reference value :  7.68456e-08
 Reference value :  1.18829e-07
 Reference value :  1.57599e-07
 Reference value :  1.98966e-07
 Reference value :  2.41141e-07
 Reference value :  2.83584e-07
 Reference value :  3.27369e-07
No. of Data Rows : 68034

  Measurements for Transient Analysis

tplh                =  1.81335e-09 targ=  2.85124e-08 trig=  2.66990e-08
tphl                =  2.38291e-09 targ=  1.04480e-07 trig=  1.02097e-07
i_vdd_avg           =  -2.36724e-06 from=  1.00000e-08 to=  3.30004e-07
power_avg_uw        =  4.27529e+00


Total analysis time (seconds) = 4.57309

Total elapsed time (seconds) = 4.651 

Total DRAM available = 16384.000 MB.
DRAM currently available =  100.031 MB.
Maximum ngspice program size =   14.953 MB.
Current ngspice program size =   14.953 MB.

