
Note: No compatibility mode selected!


Circuit: GF180MCU library cell xor2_4 A1_to_Z__A2=0

Doing analysis at TEMP = -33.249934 and TNOM = 27.000000

Using SPARSE 1.3 as Direct Linear Solver

Initial Transient Solution
--------------------------

Node                                   Voltage
----                                   -------
vdd                                    1.66727
a1                                           0
a2                                           0
xu1.net_2                           0.00618601
xu1.i                                  1.66727
xu1.net_0                          3.68447e-11
xu1.z_neg                              1.66727
z                                  6.94303e-09
xu1.net_1                              1.66727
vfix_a2#branch                               0
vin#branch                                   0
vdd#branch                         -1.2144e-11

 Reference value :  3.44811e-08
 Reference value :  7.93511e-08
 Reference value :  1.21670e-07
 Reference value :  1.63915e-07
 Reference value :  2.07756e-07
 Reference value :  2.52771e-07
 Reference value :  2.93565e-07
 Reference value :  3.34760e-07
No. of Data Rows : 68034

  Measurements for Transient Analysis

tplh                =  1.16345e-09 targ=  2.79252e-08 trig=  2.67618e-08
tphl                =  2.28444e-09 targ=  1.04570e-07 trig=  1.02285e-07
i_vdd_avg           =  -3.99990e-07 from=  1.00000e-08 to=  3.30005e-07
power_avg_uw        =  6.66894e-01


Total analysis time (seconds) = 4.59556

Total elapsed time (seconds) = 4.651 

Total DRAM available = 16384.000 MB.
DRAM currently available =  102.188 MB.
Maximum ngspice program size =   12.703 MB.
Current ngspice program size =   12.703 MB.

