
Note: No compatibility mode selected!


Circuit: GF180MCU library cell mux2_4 I0_to_Z__I1=0,S=0

Doing analysis at TEMP = 37.404397 and TNOM = 27.000000

Using SPARSE 1.3 as Direct Linear Solver

Initial Transient Solution
--------------------------

Node                                   Voltage
----                                   -------
vdd                                    1.95282
i0                                           0
i1                                           0
s                                            0
xu1.int04                              1.95282
z                                   8.4261e-09
xu1.net_1                            0.0433918
xu1.net_3                              1.45187
xu1.sel1_n                             1.95282
xu1.net_0                              1.95282
xu1.net_2                              1.95282
vfix_s#branch                                0
vfix_i1#branch                               0
vin#branch                                   0
vdd#branch                        -2.22349e-11

 Reference value :  2.84675e-08
 Reference value :  6.45661e-08
 Reference value :  1.06611e-07
 Reference value :  1.46515e-07
 Reference value :  1.90623e-07
 Reference value :  2.31006e-07
 Reference value :  2.72506e-07
 Reference value :  3.14395e-07
No. of Data Rows : 68034

  Measurements for Transient Analysis

tplh                =  1.03484e-09 targ=  3.05692e-08 trig=  2.95343e-08
tphl                =  2.68017e-09 targ=  1.13283e-07 trig=  1.10603e-07
i_vdd_avg           =  -1.22552e-06 from=  1.00000e-08 to=  3.30005e-07
power_avg_uw        =  2.39323e+00


Total analysis time (seconds) = 4.85047

Total elapsed time (seconds) = 4.932 

Total DRAM available = 16384.000 MB.
DRAM currently available =  171.297 MB.
Maximum ngspice program size =   17.766 MB.
Current ngspice program size =   17.766 MB.

