
Note: No compatibility mode selected!


Circuit: GF180MCU library cell oai21_4 A1_to_ZN__A2=0,B=1

Doing analysis at TEMP = 67.160504 and TNOM = 27.000000

Using SPARSE 1.3 as Direct Linear Solver

Initial Transient Solution
--------------------------

Node                                   Voltage
----                                   -------
vdd                                    1.97884
a1                                           0
a2                                           0
b                                      1.97884
zn                                     1.97884
xu1.net_0                          1.37745e-07
xu1.net_1_0                            1.97884
xu1.net_1_1                            1.97884
xu1.net_1_2                            1.97884
xu1.net_1_3                            1.97884
vfix_b#branch                                0
vfix_a2#branch                               0
vin#branch                                   0
vdd#branch                        -1.44226e-10

 Reference value :  2.37064e-08
 Reference value :  5.56127e-08
 Reference value :  8.70727e-08
 Reference value :  1.18428e-07
 Reference value :  1.51373e-07
 Reference value :  1.86423e-07
 Reference value :  2.19238e-07
 Reference value :  2.52063e-07
 Reference value :  2.83283e-07
 Reference value :  3.14578e-07
No. of Data Rows : 68032

  Measurements for Transient Analysis

tphl                =  1.21836e-09 targ=  2.98810e-08 trig=  2.86626e-08
tplh                =  3.64906e-09 targ=  1.11637e-07 trig=  1.07988e-07
i_vdd_avg           =  -2.07284e-06 from=  1.00000e-08 to=  3.30003e-07
power_avg_uw        =  4.10183e+00


Total analysis time (seconds) = 6.13433

Total elapsed time (seconds) = 6.201 

Total DRAM available = 16384.000 MB.
DRAM currently available =  106.875 MB.
Maximum ngspice program size =   13.625 MB.
Current ngspice program size =   13.625 MB.

