
Note: No compatibility mode selected!


Circuit: GF180MCU library cell xor2_4 A1_to_Z__A2=0

Doing analysis at TEMP = 122.766070 and TNOM = 27.000000

Using SPARSE 1.3 as Direct Linear Solver

Initial Transient Solution
--------------------------

Node                                   Voltage
----                                   -------
vdd                                     1.9251
a1                                           0
a2                                           0
xu1.net_2                             0.056761
xu1.i                                   1.9251
xu1.net_0                          2.27219e-06
xu1.z_neg                              1.92509
z                                  3.93688e-08
xu1.net_1                              1.92509
vfix_a2#branch                               0
vin#branch                                   0
vdd#branch                        -5.80776e-10

 Reference value :  3.12812e-08
 Reference value :  7.05812e-08
 Reference value :  1.12170e-07
 Reference value :  1.50960e-07
 Reference value :  1.91496e-07
 Reference value :  2.33871e-07
 Reference value :  2.71095e-07
 Reference value :  3.13270e-07
No. of Data Rows : 68034

  Measurements for Transient Analysis

tplh                =  1.30180e-09 targ=  2.68337e-08 trig=  2.55319e-08
tphl                =  1.91032e-09 targ=  1.00506e-07 trig=  9.85956e-08
i_vdd_avg           =  -1.45694e-06 from=  1.00000e-08 to=  3.30005e-07
power_avg_uw        =  2.80476e+00


Total analysis time (seconds) = 4.88088

Total elapsed time (seconds) = 4.942 

Total DRAM available = 16384.000 MB.
DRAM currently available =  120.453 MB.
Maximum ngspice program size =   16.453 MB.
Current ngspice program size =   16.453 MB.

