
Note: No compatibility mode selected!


Circuit: GF180MCU library cell nand3_4 A1_to_ZN__A2=1,A3=1

Doing analysis at TEMP = 83.791870 and TNOM = 27.000000

Using SPARSE 1.3 as Direct Linear Solver

Initial Transient Solution
--------------------------

Node                                   Voltage
----                                   -------
vdd                                    1.81349
a1                                           0
a2                                     1.81349
a3                                     1.81349
xu1.net_1_3                         1.7697e-07
xu1.net_0                           3.5394e-07
xu1.net_1_2                         1.7697e-07
xu1.net_1_1                         1.7697e-07
xu1.net_1_0                         1.7697e-07
xu1.net_0_0                         3.5394e-07
zn                                     1.81349
vfix_a3#branch                               0
vfix_a2#branch                               0
vin#branch                                   0
vdd#branch                        -1.51515e-10

 Reference value :  2.59220e-08
 Reference value :  5.74620e-08
 Reference value :  8.82070e-08
 Reference value :  1.19251e-07
 Reference value :  1.52471e-07
 Reference value :  1.84068e-07
 Reference value :  2.17052e-07
 Reference value :  2.48422e-07
 Reference value :  2.79296e-07
 Reference value :  3.09251e-07
No. of Data Rows : 68032

  Measurements for Transient Analysis

tphl                =  1.65943e-09 targ=  2.64567e-08 trig=  2.47972e-08
tplh                =  1.89871e-09 targ=  9.82904e-08 trig=  9.63917e-08
i_vdd_avg           =  -2.40652e-06 from=  1.00000e-08 to=  3.30001e-07
power_avg_uw        =  4.36420e+00


Total analysis time (seconds) = 6.21489

Total elapsed time (seconds) = 6.277 

Total DRAM available = 16384.000 MB.
DRAM currently available =  130.328 MB.
Maximum ngspice program size =   14.750 MB.
Current ngspice program size =   14.750 MB.

