
Note: No compatibility mode selected!


Circuit: GF180MCU library cell nand2_1 A1_to_ZN__A2=1

Doing analysis at TEMP = 97.020766 and TNOM = 27.000000

Using SPARSE 1.3 as Direct Linear Solver

Initial Transient Solution
--------------------------

Node                                   Voltage
----                                   -------
vdd                                    1.87365
a1                                           0
a2                                     1.87365
xu1.net_0                            3.465e-07
zn                                     1.87365
vfix_a2#branch                               0
vin#branch                                   0
vdd#branch                        -7.26916e-11

 Reference value :  1.20205e-07
 Reference value :  3.02020e-07
No. of Data Rows : 68030

  Measurements for Transient Analysis

tphl                =  4.24655e-09 targ=  3.22422e-08 trig=  2.79957e-08
tplh                =  5.79254e-09 targ=  1.11780e-07 trig=  1.05987e-07
i_vdd_avg           =  -1.91576e-06 from=  1.00000e-08 to=  3.30000e-07
power_avg_uw        =  3.58946e+00


Total analysis time (seconds) = 1.04955

Total elapsed time (seconds) = 1.111 

Total DRAM available = 16384.000 MB.
DRAM currently available =   99.094 MB.
Maximum ngspice program size =   13.297 MB.
Current ngspice program size =   12.312 MB.

