
Note: No compatibility mode selected!


Circuit: GF180MCU library cell oai21_4 A1_to_ZN__A2=0,B=1

Doing analysis at TEMP = 87.508175 and TNOM = 27.000000

Using SPARSE 1.3 as Direct Linear Solver

Initial Transient Solution
--------------------------

Node                                   Voltage
----                                   -------
vdd                                    1.89507
a1                                           0
a2                                           0
b                                      1.89507
zn                                     1.89507
xu1.net_0                          4.26549e-07
xu1.net_1_0                            1.89507
xu1.net_1_1                            1.89507
xu1.net_1_2                            1.89507
xu1.net_1_3                            1.89507
vfix_b#branch                                0
vfix_a2#branch                               0
vin#branch                                   0
vdd#branch                        -3.76225e-10

 Reference value :  2.37164e-08
 Reference value :  5.53179e-08
 Reference value :  8.76579e-08
 Reference value :  1.19288e-07
 Reference value :  1.50963e-07
 Reference value :  1.83123e-07
 Reference value :  2.13763e-07
 Reference value :  2.44798e-07
 Reference value :  2.75753e-07
 Reference value :  3.03683e-07
 Reference value :  3.31858e-07
No. of Data Rows : 68032

  Measurements for Transient Analysis

tphl                =  3.81236e-10 targ=  2.96764e-08 trig=  2.92952e-08
tplh                =  2.73010e-09 targ=  1.12616e-07 trig=  1.09886e-07
i_vdd_avg           =  -1.11684e-06 from=  1.00000e-08 to=  3.30003e-07
power_avg_uw        =  2.11650e+00


Total analysis time (seconds) = 4.61917

Total elapsed time (seconds) = 4.691 

Total DRAM available = 16384.000 MB.
DRAM currently available =  152.938 MB.
Maximum ngspice program size =   14.688 MB.
Current ngspice program size =   14.688 MB.

