
Note: No compatibility mode selected!


Circuit: GF180MCU library cell mux2_1 I0_to_Z__I1=0,S=0

Doing analysis at TEMP = 56.000983 and TNOM = 27.000000

Using SPARSE 1.3 as Direct Linear Solver

Initial Transient Solution
--------------------------

Node                                   Voltage
----                                   -------
vdd                                    1.79356
i0                                           0
i1                                           0
s                                            0
xu1.int04                              1.79356
z                                   9.1653e-09
xu1.net_1                            0.0490409
xu1.net_3                              1.36196
xu1.sel1_n                             1.79356
xu1.net_0                              1.79356
xu1.net_2                              1.79356
vfix_s#branch                                0
vfix_i1#branch                               0
vin#branch                                   0
vdd#branch                        -5.25344e-11

 Reference value :  4.32859e-08
 Reference value :  9.99259e-08
 Reference value :  1.65349e-07
 Reference value :  2.28836e-07
 Reference value :  2.93474e-07
No. of Data Rows : 68034

  Measurements for Transient Analysis

tplh                =  4.87577e-09 targ=  3.44125e-08 trig=  2.95367e-08
tphl                =  4.63386e-09 targ=  1.15244e-07 trig=  1.10610e-07
i_vdd_avg           =  -2.41490e-06 from=  1.00000e-08 to=  3.30004e-07
power_avg_uw        =  4.33127e+00


Total analysis time (seconds) = 3.16608

Total elapsed time (seconds) = 3.241 

Total DRAM available = 16384.000 MB.
DRAM currently available =   76.031 MB.
Maximum ngspice program size =   17.250 MB.
Current ngspice program size =   17.250 MB.

