
Note: No compatibility mode selected!


Circuit: GF180MCU library cell xor2_1 A1_to_Z__A2=0

Doing analysis at TEMP = 120.401900 and TNOM = 27.000000

Using SPARSE 1.3 as Direct Linear Solver

Initial Transient Solution
--------------------------

Node                                   Voltage
----                                   -------
vdd                                    1.82109
a1                                           0
a2                                           0
xu1.i                                  1.82104
z                                  6.25061e-08
xu1.net_0                          3.12276e-08
xu1.net_2                              1.82106
xu1.net_1                             0.510502
vfix_a2#branch                               0
vin#branch                                   0
vdd#branch                        -8.26174e-10

 Reference value :  5.61308e-08
 Reference value :  1.27899e-07
 Reference value :  1.97856e-07
 Reference value :  2.63971e-07
 Reference value :  3.32599e-07
No. of Data Rows : 68034

  Measurements for Transient Analysis

tplh                =  1.59317e-09 targ=  2.98398e-08 trig=  2.82466e-08
tphl                =  2.51390e-09 targ=  1.09254e-07 trig=  1.06740e-07
i_vdd_avg           =  -5.23205e-07 from=  1.00000e-08 to=  3.30004e-07
power_avg_uw        =  9.52803e-01


Total analysis time (seconds) = 2.76179

Total elapsed time (seconds) = 2.822 

Total DRAM available = 16384.000 MB.
DRAM currently available =  108.812 MB.
Maximum ngspice program size =   13.266 MB.
Current ngspice program size =   12.938 MB.

