
Note: No compatibility mode selected!


Circuit: GF180MCU library cell aoi21_4 A1_to_ZN__A2=1,B=0

Doing analysis at TEMP = 54.887124 and TNOM = 27.000000

Using SPARSE 1.3 as Direct Linear Solver

Initial Transient Solution
--------------------------

Node                                   Voltage
----                                   -------
vdd                                    1.86283
a1                                           0
a2                                     1.86283
b                                            0
xu1.net_0_0                        3.31067e-08
zn                                     1.86283
xu1.net_0_1                        3.31067e-08
xu1.net_0_2                        3.31067e-08
xu1.net_0_3                        3.31067e-08
xu1.net_1                              1.86283
vfix_b#branch                                0
vfix_a2#branch                               0
vin#branch                                   0
vdd#branch                         -7.8075e-11

 Reference value :  2.32964e-08
 Reference value :  5.47203e-08
 Reference value :  8.66803e-08
 Reference value :  1.19903e-07
 Reference value :  1.50278e-07
 Reference value :  1.82838e-07
 Reference value :  2.13730e-07
 Reference value :  2.44110e-07
 Reference value :  2.73145e-07
 Reference value :  3.02258e-07
 Reference value :  3.33173e-07
No. of Data Rows : 68034

  Measurements for Transient Analysis

tphl                =  7.48946e-10 targ=  2.97454e-08 trig=  2.89964e-08
tplh                =  2.85859e-09 targ=  1.11848e-07 trig=  1.08989e-07
i_vdd_avg           =  -1.20636e-06 from=  1.00000e-08 to=  3.30003e-07
power_avg_uw        =  2.24724e+00


Total analysis time (seconds) = 6.418

Total elapsed time (seconds) = 6.481 

Total DRAM available = 16384.000 MB.
DRAM currently available =   83.031 MB.
Maximum ngspice program size =   16.156 MB.
Current ngspice program size =   16.156 MB.

