
Note: No compatibility mode selected!


Circuit: GF180MCU library cell nand3_4 A1_to_ZN__A2=1,A3=1

Doing analysis at TEMP = -18.897410 and TNOM = 27.000000

Using SPARSE 1.3 as Direct Linear Solver

Initial Transient Solution
--------------------------

Node                                   Voltage
----                                   -------
vdd                                    1.93604
a1                                           0
a2                                     1.93604
a3                                     1.93604
xu1.net_1_3                        8.55789e-11
xu1.net_0                          1.71158e-10
xu1.net_1_2                        8.55789e-11
xu1.net_1_1                        8.55789e-11
xu1.net_1_0                         8.5579e-11
xu1.net_0_0                        1.71158e-10
zn                                     1.93604
vfix_a3#branch                               0
vfix_a2#branch                               0
vin#branch                                   0
vdd#branch                        -7.88366e-12

 Reference value :  2.68975e-08
 Reference value :  6.00730e-08
 Reference value :  9.42730e-08
 Reference value :  1.28813e-07
 Reference value :  1.60898e-07
 Reference value :  1.93908e-07
 Reference value :  2.25703e-07
 Reference value :  2.58753e-07
 Reference value :  2.91463e-07
 Reference value :  3.24788e-07
No. of Data Rows : 68032

  Measurements for Transient Analysis

tphl                =  1.80077e-09 targ=  2.95810e-08 trig=  2.77802e-08
tplh                =  2.84305e-09 targ=  1.08184e-07 trig=  1.05341e-07
i_vdd_avg           =  -2.22569e-06 from=  1.00000e-08 to=  3.30003e-07
power_avg_uw        =  4.30902e+00


Total analysis time (seconds) = 5.92824

Total elapsed time (seconds) = 5.991 

Total DRAM available = 16384.000 MB.
DRAM currently available =  120.453 MB.
Maximum ngspice program size =   14.828 MB.
Current ngspice program size =   14.828 MB.

