
Note: No compatibility mode selected!


Circuit: GF180MCU library cell nand2_1 A1_to_ZN__A2=1

Doing analysis at TEMP = 58.776375 and TNOM = 27.000000

Using SPARSE 1.3 as Direct Linear Solver

Initial Transient Solution
--------------------------

Node                                   Voltage
----                                   -------
vdd                                    1.70431
a1                                           0
a2                                     1.70431
xu1.net_0                          4.30908e-08
zn                                     1.70431
vfix_a2#branch                               0
vin#branch                                   0
vdd#branch                        -1.04274e-11

 Reference value :  1.16643e-07
 Reference value :  2.73568e-07
No. of Data Rows : 68034

  Measurements for Transient Analysis

tphl                =  3.59605e-09 targ=  3.04874e-08 trig=  2.68913e-08
tplh                =  5.01170e-09 targ=  1.07686e-07 trig=  1.02674e-07
i_vdd_avg           =  -1.40087e-06 from=  1.00000e-08 to=  3.30003e-07
power_avg_uw        =  2.38752e+00


Total analysis time (seconds) = 1.13157

Total elapsed time (seconds) = 1.194 

Total DRAM available = 16384.000 MB.
DRAM currently available =  112.922 MB.
Maximum ngspice program size =   14.297 MB.
Current ngspice program size =   14.297 MB.

