
Note: No compatibility mode selected!


Circuit: GF180MCU library cell xor2_1 A1_to_Z__A2=0

Doing analysis at TEMP = 89.755666 and TNOM = 27.000000

Using SPARSE 1.3 as Direct Linear Solver

Initial Transient Solution
--------------------------

Node                                   Voltage
----                                   -------
vdd                                    1.66869
a1                                           0
a2                                           0
xu1.i                                  1.66868
z                                  4.09315e-08
xu1.net_0                          2.03979e-08
xu1.net_2                              1.66868
xu1.net_1                             0.505716
vfix_a2#branch                               0
vin#branch                                   0
vdd#branch                        -2.24467e-10

 Reference value :  5.09605e-08
 Reference value :  1.19519e-07
 Reference value :  1.88833e-07
 Reference value :  2.53991e-07
 Reference value :  3.21739e-07
No. of Data Rows : 68034

  Measurements for Transient Analysis

tplh                =  5.72949e-09 targ=  3.48510e-08 trig=  2.91215e-08
tphl                =  3.75215e-09 targ=  1.13117e-07 trig=  1.09365e-07
i_vdd_avg           =  -1.19597e-06 from=  1.00000e-08 to=  3.30004e-07
power_avg_uw        =  1.99571e+00


Total analysis time (seconds) = 2.89088

Total elapsed time (seconds) = 2.952 

Total DRAM available = 16384.000 MB.
DRAM currently available =  107.922 MB.
Maximum ngspice program size =   14.625 MB.
Current ngspice program size =   14.625 MB.

