
Note: No compatibility mode selected!


Circuit: GF180MCU library cell oai21_1 A1_to_ZN__A2=0,B=1

Doing analysis at TEMP = 93.066241 and TNOM = 27.000000

Using SPARSE 1.3 as Direct Linear Solver

Initial Transient Solution
--------------------------

Node                                   Voltage
----                                   -------
vdd                                    1.86789
a1                                           0
a2                                           0
b                                      1.86789
zn                                     1.86789
xu1.net_0                          5.68948e-07
xu1.net_1                              1.86789
vfix_b#branch                                0
vfix_a2#branch                               0
vin#branch                                   0
vdd#branch                        -1.20742e-10

 Reference value :  8.30721e-08
 Reference value :  1.84483e-07
 Reference value :  2.92662e-07
No. of Data Rows : 68032

  Measurements for Transient Analysis

tphl                =  3.33453e-09 targ=  2.98568e-08 trig=  2.65223e-08
tplh                =  7.33816e-09 targ=  1.08905e-07 trig=  1.01567e-07
i_vdd_avg           =  -1.62327e-06 from=  1.00000e-08 to=  3.30002e-07
power_avg_uw        =  3.03210e+00


Total analysis time (seconds) = 1.67462

Total elapsed time (seconds) = 1.735 

Total DRAM available = 16384.000 MB.
DRAM currently available =   83.906 MB.
Maximum ngspice program size =   14.969 MB.
Current ngspice program size =   14.969 MB.

