
Note: No compatibility mode selected!


Circuit: GF180MCU library cell xor2_1 A1_to_Z__A2=0

Doing analysis at TEMP = -38.578578 and TNOM = 27.000000

Using SPARSE 1.3 as Direct Linear Solver

Initial Transient Solution
--------------------------

Node                                   Voltage
----                                   -------
vdd                                    1.71088
a1                                           0
a2                                           0
xu1.i                                  1.71088
z                                  2.38153e-08
xu1.net_0                          1.65118e-10
xu1.net_2                              1.71088
xu1.net_1                              0.73884
vfix_a2#branch                               0
vin#branch                                   0
vdd#branch                         -9.8514e-12

 Reference value :  6.11503e-08
 Reference value :  1.34928e-07
 Reference value :  2.09875e-07
 Reference value :  2.78393e-07
No. of Data Rows : 68034

  Measurements for Transient Analysis

tplh                =  8.63893e-09 targ=  3.46929e-08 trig=  2.60539e-08
tphl                =  3.17009e-09 targ=  1.03332e-07 trig=  1.00162e-07
i_vdd_avg           =  -2.12263e-06 from=  1.00000e-08 to=  3.30003e-07
power_avg_uw        =  3.63157e+00


Total analysis time (seconds) = 2.5874

Total elapsed time (seconds) = 2.647 

Total DRAM available = 16384.000 MB.
DRAM currently available =  171.297 MB.
Maximum ngspice program size =   14.875 MB.
Current ngspice program size =   14.875 MB.

