
Note: No compatibility mode selected!


Circuit: GF180MCU library cell oai21_1 A1_to_ZN__A2=0,B=1

Doing analysis at TEMP = 122.144280 and TNOM = 27.000000

Using SPARSE 1.3 as Direct Linear Solver

Initial Transient Solution
--------------------------

Node                                   Voltage
----                                   -------
vdd                                    1.78297
a1                                           0
a2                                           0
b                                      1.78297
zn                                     1.78296
xu1.net_0                          2.24477e-06
xu1.net_1                              1.78296
vfix_b#branch                                0
vfix_a2#branch                               0
vin#branch                                   0
vdd#branch                        -4.14745e-10

 Reference value :  8.55250e-08
 Reference value :  1.96580e-07
 Reference value :  3.03908e-07
No. of Data Rows : 68034

  Measurements for Transient Analysis

tphl                =  3.43122e-09 targ=  2.84000e-08 trig=  2.49688e-08
tplh                =  8.22381e-09 targ=  1.05130e-07 trig=  9.69063e-08
i_vdd_avg           =  -1.73335e-06 from=  1.00000e-08 to=  3.30003e-07
power_avg_uw        =  3.09051e+00


Total analysis time (seconds) = 1.66336

Total elapsed time (seconds) = 1.719 

Total DRAM available = 16384.000 MB.
DRAM currently available =  100.031 MB.
Maximum ngspice program size =   14.125 MB.
Current ngspice program size =   14.125 MB.

