
Note: No compatibility mode selected!


Circuit: GF180MCU library cell xor2_1 A1_to_Z__A2=0

Doing analysis at TEMP = 24.716146 and TNOM = 27.000000

Using SPARSE 1.3 as Direct Linear Solver

Initial Transient Solution
--------------------------

Node                                   Voltage
----                                   -------
vdd                                     1.8659
a1                                           0
a2                                           0
xu1.i                                   1.8659
z                                  3.02362e-08
xu1.net_0                          1.28536e-08
xu1.net_2                               1.8659
xu1.net_1                             0.662072
vfix_a2#branch                               0
vin#branch                                   0
vdd#branch                        -1.78691e-11

 Reference value :  5.28852e-08
 Reference value :  1.24573e-07
 Reference value :  1.92425e-07
 Reference value :  2.66243e-07
 Reference value :  3.35653e-07
No. of Data Rows : 68034

  Measurements for Transient Analysis

tplh                =  2.93387e-09 targ=  2.82602e-08 trig=  2.53264e-08
tphl                =  1.66273e-09 targ=  9.96419e-08 trig=  9.79791e-08
i_vdd_avg           =  -8.23664e-07 from=  1.00000e-08 to=  3.30003e-07
power_avg_uw        =  1.53688e+00


Total analysis time (seconds) = 2.74266

Total elapsed time (seconds) = 2.809 

Total DRAM available = 16384.000 MB.
DRAM currently available =  106.312 MB.
Maximum ngspice program size =   13.625 MB.
Current ngspice program size =   13.625 MB.

