
Note: No compatibility mode selected!


Circuit: GF180MCU library cell aoi21_4 A1_to_ZN__A2=1,B=0

Doing analysis at TEMP = -2.736706 and TNOM = 27.000000

Using SPARSE 1.3 as Direct Linear Solver

Initial Transient Solution
--------------------------

Node                                   Voltage
----                                   -------
vdd                                    1.64126
a1                                           0
a2                                     1.64126
b                                            0
xu1.net_0_0                        4.32283e-10
zn                                     1.64126
xu1.net_0_1                        4.32283e-10
xu1.net_0_2                        4.32283e-10
xu1.net_0_3                        4.32283e-10
xu1.net_1                              1.64126
vfix_b#branch                                0
vfix_a2#branch                               0
vin#branch                                   0
vdd#branch                        -1.40946e-11

 Reference value :  2.22064e-08
 Reference value :  5.43582e-08
 Reference value :  8.73282e-08
 Reference value :  1.16279e-07
 Reference value :  1.48574e-07
 Reference value :  1.79959e-07
 Reference value :  2.13883e-07
 Reference value :  2.45263e-07
 Reference value :  2.74334e-07
 Reference value :  3.05724e-07
 Reference value :  3.38904e-07
No. of Data Rows : 68032

  Measurements for Transient Analysis

tphl                =  3.47643e-10 targ=  2.46955e-08 trig=  2.43478e-08
tplh                =  7.11351e-10 targ=  9.57549e-08 trig=  9.50435e-08
i_vdd_avg           =  -4.23281e-07 from=  1.00000e-08 to=  3.30004e-07
power_avg_uw        =  6.94714e-01


Total analysis time (seconds) = 6.33925

Total elapsed time (seconds) = 6.426 

Total DRAM available = 16384.000 MB.
DRAM currently available =  152.219 MB.
Maximum ngspice program size =   16.438 MB.
Current ngspice program size =   16.438 MB.

