
Note: No compatibility mode selected!


Circuit: GF180MCU library cell inv_4 I_to_ZN

Doing analysis at TEMP = 25.531385 and TNOM = 27.000000

Using SPARSE 1.3 as Direct Linear Solver

Initial Transient Solution
--------------------------

Node                                   Voltage
----                                   -------
vdd                                    1.82863
i                                            0
zn                                     1.82863
vin#branch                                   0
vdd#branch                        -1.15671e-11

 Reference value :  6.93674e-08
 Reference value :  1.59772e-07
 Reference value :  2.44907e-07
 Reference value :  3.30802e-07
No. of Data Rows : 68032

  Measurements for Transient Analysis

tphl                =  4.22179e-10 targ=  2.57222e-08 trig=  2.53000e-08
tplh                =  9.51654e-10 targ=  9.88516e-08 trig=  9.78999e-08
i_vdd_avg           =  -7.19629e-07 from=  1.00000e-08 to=  3.30002e-07
power_avg_uw        =  1.31593e+00


Total analysis time (seconds) = 2.13791

Total elapsed time (seconds) = 2.204 

Total DRAM available = 16384.000 MB.
DRAM currently available =  130.328 MB.
Maximum ngspice program size =   15.062 MB.
Current ngspice program size =   15.062 MB.

