
Note: No compatibility mode selected!


Circuit: GF180MCU library cell oai21_1 A1_to_ZN__A2=0,B=1

Doing analysis at TEMP = -8.933326 and TNOM = 27.000000

Using SPARSE 1.3 as Direct Linear Solver

Initial Transient Solution
--------------------------

Node                                   Voltage
----                                   -------
vdd                                    1.69273
a1                                           0
a2                                           0
b                                      1.69273
zn                                     1.69273
xu1.net_0                          4.78279e-10
xu1.net_1                              1.69273
vfix_b#branch                                0
vfix_a2#branch                               0
vin#branch                                   0
vdd#branch                        -3.52084e-12

 Reference value :  7.55242e-08
 Reference value :  1.81606e-07
 Reference value :  2.87406e-07
No. of Data Rows : 68030

  Measurements for Transient Analysis

tphl                =  3.18159e-09 targ=  3.12925e-08 trig=  2.81109e-08
tplh                =  6.41174e-09 targ=  1.12744e-07 trig=  1.06333e-07
i_vdd_avg           =  -9.82331e-07 from=  1.00000e-08 to=  3.30001e-07
power_avg_uw        =  1.66282e+00


Total analysis time (seconds) = 1.75722

Total elapsed time (seconds) = 1.834 

Total DRAM available = 16384.000 MB.
DRAM currently available =  152.641 MB.
Maximum ngspice program size =   15.641 MB.
Current ngspice program size =   15.641 MB.

