
Note: No compatibility mode selected!


Circuit: GF180MCU library cell xor2_4 A1_to_Z__A2=0

Doing analysis at TEMP = 31.395440 and TNOM = 27.000000

Using SPARSE 1.3 as Direct Linear Solver

Initial Transient Solution
--------------------------

Node                                   Voltage
----                                   -------
vdd                                    1.79276
a1                                           0
a2                                           0
xu1.net_2                            0.0450432
xu1.i                                  1.79276
xu1.net_0                          1.36654e-08
xu1.z_neg                              1.79276
z                                  8.32389e-09
xu1.net_1                              1.79276
vfix_a2#branch                               0
vin#branch                                   0
vdd#branch                        -1.71611e-11

 Reference value :  3.32669e-08
 Reference value :  7.40069e-08
 Reference value :  1.15926e-07
 Reference value :  1.57146e-07
 Reference value :  2.00177e-07
 Reference value :  2.42252e-07
 Reference value :  2.82051e-07
 Reference value :  3.22881e-07
No. of Data Rows : 68032

  Measurements for Transient Analysis

tplh                =  1.15158e-09 targ=  2.93813e-08 trig=  2.82297e-08
tphl                =  2.72942e-09 targ=  1.09419e-07 trig=  1.06689e-07
i_vdd_avg           =  -7.53208e-07 from=  1.00000e-08 to=  3.30001e-07
power_avg_uw        =  1.35032e+00


Total analysis time (seconds) = 4.76335

Total elapsed time (seconds) = 4.828 

Total DRAM available = 16384.000 MB.
DRAM currently available =  104.766 MB.
Maximum ngspice program size =   15.578 MB.
Current ngspice program size =   15.578 MB.

