
Note: No compatibility mode selected!


Circuit: GF180MCU library cell nand2_4 A1_to_ZN__A2=1

Doing analysis at TEMP = -8.638691 and TNOM = 27.000000

Using SPARSE 1.3 as Direct Linear Solver

Initial Transient Solution
--------------------------

Node                                   Voltage
----                                   -------
vdd                                    1.72318
a1                                           0
a2                                     1.72318
xu1.net_0_0                        2.44651e-10
zn                                     1.72318
xu1.net_0_1                         2.4465e-10
xu1.net_0_2                        2.44651e-10
xu1.net_0_3                         2.4465e-10
vfix_a2#branch                               0
vin#branch                                   0
vdd#branch                        -7.17371e-12

 Reference value :  3.67221e-08
 Reference value :  8.41971e-08
 Reference value :  1.27852e-07
 Reference value :  1.72867e-07
 Reference value :  2.22727e-07
 Reference value :  2.71322e-07
 Reference value :  3.18257e-07
No. of Data Rows : 68032

  Measurements for Transient Analysis

tphl                =  9.95793e-10 targ=  2.79831e-08 trig=  2.69873e-08
tplh                =  1.95484e-09 targ=  1.04917e-07 trig=  1.02962e-07
i_vdd_avg           =  -9.30443e-07 from=  1.00000e-08 to=  3.30002e-07
power_avg_uw        =  1.60332e+00


Total analysis time (seconds) = 4.13171

Total elapsed time (seconds) = 4.193 

Total DRAM available = 16384.000 MB.
DRAM currently available =   83.031 MB.
Maximum ngspice program size =   13.422 MB.
Current ngspice program size =   13.312 MB.

