
Note: No compatibility mode selected!


Circuit: GF180MCU library cell nand2_4 A1_to_ZN__A2=1

Doing analysis at TEMP = 114.222960 and TNOM = 27.000000

Using SPARSE 1.3 as Direct Linear Solver

Initial Transient Solution
--------------------------

Node                                   Voltage
----                                   -------
vdd                                    1.92557
a1                                           0
a2                                     1.92557
xu1.net_0_0                        7.78294e-07
zn                                     1.92557
xu1.net_0_1                        7.78294e-07
xu1.net_0_2                        7.78294e-07
xu1.net_0_3                        7.78294e-07
vfix_a2#branch                               0
vin#branch                                   0
vdd#branch                        -6.36297e-10

 Reference value :  3.77136e-08
 Reference value :  8.34236e-08
 Reference value :  1.28415e-07
 Reference value :  1.72795e-07
 Reference value :  2.21154e-07
 Reference value :  2.65129e-07
 Reference value :  3.11305e-07
No. of Data Rows : 68032

  Measurements for Transient Analysis

tphl                =  1.54929e-09 targ=  2.94523e-08 trig=  2.79030e-08
tplh                =  2.71642e-09 targ=  1.08426e-07 trig=  1.05709e-07
i_vdd_avg           =  -2.33147e-06 from=  1.00000e-08 to=  3.30005e-07
power_avg_uw        =  4.48941e+00


Total analysis time (seconds) = 4.10228

Total elapsed time (seconds) = 4.167 

Total DRAM available = 16384.000 MB.
DRAM currently available =   83.906 MB.
Maximum ngspice program size =   14.781 MB.
Current ngspice program size =   14.781 MB.

