
Note: No compatibility mode selected!


Circuit: GF180MCU library cell nor2_1 A1_to_ZN__A2=0

Doing analysis at TEMP = 70.725282 and TNOM = 27.000000

Using SPARSE 1.3 as Direct Linear Solver

Initial Transient Solution
--------------------------

Node                                   Voltage
----                                   -------
vdd                                    1.76641
a1                                           0
a2                                           0
zn                                     1.76641
xu1.net_0                              1.76641
vfix_a2#branch                               0
vin#branch                                   0
vdd#branch                        -3.87848e-11

 Reference value :  1.14551e-07
 Reference value :  2.50839e-07
No. of Data Rows : 68030

  Measurements for Transient Analysis

tphl                =  1.52354e-09 targ=  2.57018e-08 trig=  2.41783e-08
tplh                =  4.98364e-09 targ=  9.95185e-08 trig=  9.45349e-08
i_vdd_avg           =  -1.11641e-06 from=  1.00000e-08 to=  3.30001e-07
power_avg_uw        =  1.97204e+00


Total analysis time (seconds) = 1.27014

Total elapsed time (seconds) = 1.332 

Total DRAM available = 16384.000 MB.
DRAM currently available =  147.406 MB.
Maximum ngspice program size =   13.781 MB.
Current ngspice program size =   13.781 MB.

