
Note: No compatibility mode selected!


Circuit: GF180MCU library cell oai21_4 A1_to_ZN__A2=0,B=1

Doing analysis at TEMP = 17.667856 and TNOM = 27.000000

Using SPARSE 1.3 as Direct Linear Solver

Initial Transient Solution
--------------------------

Node                                   Voltage
----                                   -------
vdd                                    1.80118
a1                                           0
a2                                           0
b                                      1.80118
zn                                     1.80118
xu1.net_0                          4.80677e-09
xu1.net_1_0                            1.80118
xu1.net_1_1                            1.80118
xu1.net_1_2                            1.80118
xu1.net_1_3                            1.80118
vfix_b#branch                                0
vfix_a2#branch                               0
vin#branch                                   0
vdd#branch                        -1.91096e-11

 Reference value :  2.45625e-08
 Reference value :  5.70844e-08
 Reference value :  8.89844e-08
 Reference value :  1.21076e-07
 Reference value :  1.53101e-07
 Reference value :  1.85509e-07
 Reference value :  2.16994e-07
 Reference value :  2.46244e-07
 Reference value :  2.78841e-07
 Reference value :  3.11446e-07
No. of Data Rows : 68030

  Measurements for Transient Analysis

tphl                =  5.79016e-10 targ=  2.50675e-08 trig=  2.44885e-08
tplh                =  1.35732e-09 targ=  9.68227e-08 trig=  9.54654e-08
i_vdd_avg           =  -1.04845e-06 from=  1.00000e-08 to=  3.30001e-07
power_avg_uw        =  1.88845e+00


Total analysis time (seconds) = 6.14953

Total elapsed time (seconds) = 6.218 

Total DRAM available = 16384.000 MB.
DRAM currently available =  109.062 MB.
Maximum ngspice program size =   14.688 MB.
Current ngspice program size =   14.688 MB.

