
Note: No compatibility mode selected!


Circuit: GF180MCU library cell mux2_1 I0_to_Z__I1=0,S=0

Doing analysis at TEMP = 74.841139 and TNOM = 27.000000

Using SPARSE 1.3 as Direct Linear Solver

Initial Transient Solution
--------------------------

Node                                   Voltage
----                                   -------
vdd                                    1.72786
i0                                           0
i1                                           0
s                                            0
xu1.int04                              1.72785
z                                  1.07008e-08
xu1.net_1                            0.0500962
xu1.net_3                              1.30867
xu1.sel1_n                             1.72785
xu1.net_0                              1.72786
xu1.net_2                              1.72785
vfix_s#branch                                0
vfix_i1#branch                               0
vin#branch                                   0
vdd#branch                        -1.19251e-10

 Reference value :  4.71460e-08
 Reference value :  1.06199e-07
 Reference value :  1.62104e-07
 Reference value :  2.22871e-07
 Reference value :  2.86304e-07
No. of Data Rows : 68034

  Measurements for Transient Analysis

tplh                =  1.18673e-09 targ=  2.63735e-08 trig=  2.51867e-08
tphl                =  1.52340e-09 targ=  9.90836e-08 trig=  9.75602e-08
i_vdd_avg           =  -3.61814e-07 from=  1.00000e-08 to=  3.30004e-07
power_avg_uw        =  6.25162e-01


Total analysis time (seconds) = 3.28409

Total elapsed time (seconds) = 3.341 

Total DRAM available = 16384.000 MB.
DRAM currently available =  119.359 MB.
Maximum ngspice program size =   12.594 MB.
Current ngspice program size =   12.516 MB.

