
Note: No compatibility mode selected!


Circuit: GF180MCU library cell nor2_4 A1_to_ZN__A2=0

Doing analysis at TEMP = -24.320045 and TNOM = 27.000000

Using SPARSE 1.3 as Direct Linear Solver

Initial Transient Solution
--------------------------

Node                                   Voltage
----                                   -------
vdd                                    1.67882
a1                                           0
a2                                           0
zn                                     1.67882
xu1.net_0_0                            1.67882
xu1.net_0_1                            1.67882
xu1.net_0_2                            1.67882
xu1.net_0_3                            1.67882
vfix_a2#branch                               0
vin#branch                                   0
vdd#branch                        -1.36232e-11

 Reference value :  3.84106e-08
 Reference value :  8.58156e-08
 Reference value :  1.32514e-07
 Reference value :  1.78409e-07
 Reference value :  2.19081e-07
 Reference value :  2.64379e-07
 Reference value :  3.11664e-07
No. of Data Rows : 68034

  Measurements for Transient Analysis

tphl                =  5.58436e-10 targ=  2.67375e-08 trig=  2.61791e-08
tplh                =  1.53947e-09 targ=  1.02077e-07 trig=  1.00537e-07
i_vdd_avg           =  -4.59333e-07 from=  1.00000e-08 to=  3.30004e-07
power_avg_uw        =  7.71140e-01


Total analysis time (seconds) = 4.23625

Total elapsed time (seconds) = 4.293 

Total DRAM available = 16384.000 MB.
DRAM currently available =   75.625 MB.
Maximum ngspice program size =   12.594 MB.
Current ngspice program size =   12.453 MB.

