
Note: No compatibility mode selected!


Circuit: GF180MCU library cell aoi21_1 A1_to_ZN__A2=1,B=0

Doing analysis at TEMP = 98.576949 and TNOM = 27.000000

Using SPARSE 1.3 as Direct Linear Solver

Initial Transient Solution
--------------------------

Node                                   Voltage
----                                   -------
vdd                                    1.73156
a1                                           0
a2                                     1.73156
b                                            0
xu1.net_0                          3.80842e-07
zn                                     1.73156
xu1.net_1                              1.73156
vfix_b#branch                                0
vfix_a2#branch                               0
vin#branch                                   0
vdd#branch                        -1.49332e-10

 Reference value :  9.20095e-08
 Reference value :  1.97569e-07
 Reference value :  3.02441e-07
No. of Data Rows : 68030

  Measurements for Transient Analysis

tphl                =  2.84832e-09 targ=  2.87243e-08 trig=  2.58760e-08
tplh                =  6.47576e-09 targ=  1.06104e-07 trig=  9.96280e-08
i_vdd_avg           =  -1.18599e-06 from=  1.00000e-08 to=  3.30001e-07
power_avg_uw        =  2.05361e+00


Total analysis time (seconds) = 1.75201

Total elapsed time (seconds) = 1.813 

Total DRAM available = 16384.000 MB.
DRAM currently available =   83.031 MB.
Maximum ngspice program size =   15.078 MB.
Current ngspice program size =   15.078 MB.

