
Note: No compatibility mode selected!


Circuit: GF180MCU library cell nand3_1 A1_to_ZN__A2=1,A3=1

Doing analysis at TEMP = 3.434510 and TNOM = 27.000000

Using SPARSE 1.3 as Direct Linear Solver

Initial Transient Solution
--------------------------

Node                                   Voltage
----                                   -------
vdd                                    1.85112
a1                                           0
a2                                     1.85112
a3                                     1.85112
xu1.net_1                          7.26766e-10
xu1.net_0                          1.45353e-09
zn                                     1.85112
vfix_a3#branch                               0
vfix_a2#branch                               0
vin#branch                                   0
vdd#branch                        -2.04882e-12

 Reference value :  7.54021e-08
 Reference value :  1.82992e-07
 Reference value :  2.95107e-07
No. of Data Rows : 68032

  Measurements for Transient Analysis

tphl                =  3.26794e-10 targ=  2.93741e-08 trig=  2.90473e-08
tplh                =  1.69989e-09 targ=  1.10842e-07 trig=  1.09142e-07
i_vdd_avg           =  -1.55060e-07 from=  1.00000e-08 to=  3.30002e-07
power_avg_uw        =  2.87035e-01


Total analysis time (seconds) = 1.77283

Total elapsed time (seconds) = 1.846 

Total DRAM available = 16384.000 MB.
DRAM currently available =   77.750 MB.
Maximum ngspice program size =   15.594 MB.
Current ngspice program size =   15.594 MB.

