
Note: No compatibility mode selected!


Circuit: GF180MCU library cell xor2_4 A1_to_Z__A2=0

Doing analysis at TEMP = 66.036018 and TNOM = 27.000000

Using SPARSE 1.3 as Direct Linear Solver

Initial Transient Solution
--------------------------

Node                                   Voltage
----                                   -------
vdd                                    1.82701
a1                                           0
a2                                           0
xu1.net_2                            0.0505415
xu1.i                                  1.82701
xu1.net_0                           1.3092e-07
xu1.z_neg                              1.82701
z                                  9.76314e-09
xu1.net_1                              1.82701
vfix_a2#branch                               0
vin#branch                                   0
vdd#branch                        -4.89257e-11

 Reference value :  2.82535e-08
 Reference value :  7.03935e-08
 Reference value :  1.13915e-07
 Reference value :  1.55650e-07
 Reference value :  1.92534e-07
 Reference value :  2.30939e-07
 Reference value :  2.66990e-07
 Reference value :  3.04295e-07
No. of Data Rows : 68032

  Measurements for Transient Analysis

tplh                =  1.58563e-09 targ=  2.64336e-08 trig=  2.48480e-08
tphl                =  1.81956e-09 targ=  9.83636e-08 trig=  9.65440e-08
i_vdd_avg           =  -2.02676e-06 from=  1.00000e-08 to=  3.30005e-07
power_avg_uw        =  3.70292e+00


Total analysis time (seconds) = 3.81331

Total elapsed time (seconds) = 3.884 

Total DRAM available = 16384.000 MB.
DRAM currently available =  171.516 MB.
Maximum ngspice program size =   16.891 MB.
Current ngspice program size =   16.891 MB.

