
Note: No compatibility mode selected!


Circuit: GF180MCU library cell mux2_4 I0_to_Z__I1=0,S=0

Doing analysis at TEMP = 43.291977 and TNOM = 27.000000

Using SPARSE 1.3 as Direct Linear Solver

Initial Transient Solution
--------------------------

Node                                   Voltage
----                                   -------
vdd                                    1.88057
i0                                           0
i1                                           0
s                                            0
xu1.int04                              1.88057
z                                  8.62664e-09
xu1.net_1                            0.0445273
xu1.net_3                               1.3972
xu1.sel1_n                             1.88057
xu1.net_0                              1.88057
xu1.net_2                              1.88057
vfix_s#branch                                0
vfix_i1#branch                               0
vin#branch                                   0
vdd#branch                        -2.37819e-11

 Reference value :  2.80202e-08
 Reference value :  7.14952e-08
 Reference value :  1.10658e-07
 Reference value :  1.55578e-07
 Reference value :  1.95265e-07
 Reference value :  2.36970e-07
 Reference value :  2.78828e-07
 Reference value :  3.18358e-07
No. of Data Rows : 68034

  Measurements for Transient Analysis

tplh                =  1.13577e-09 targ=  2.58146e-08 trig=  2.46789e-08
tphl                =  1.44333e-09 targ=  9.74799e-08 trig=  9.60366e-08
i_vdd_avg           =  -1.37045e-06 from=  1.00000e-08 to=  3.30003e-07
power_avg_uw        =  2.57722e+00


Total analysis time (seconds) = 4.89083

Total elapsed time (seconds) = 4.955 

Total DRAM available = 16384.000 MB.
DRAM currently available =   83.031 MB.
Maximum ngspice program size =   16.109 MB.
Current ngspice program size =   16.109 MB.

