
Note: No compatibility mode selected!


Circuit: INV seed characterization sample 20005

Doing analysis at TEMP = 40.837500 and TNOM = 27.000000

Using SPARSE 1.3 as Direct Linear Solver

Initial Transient Solution
--------------------------

Node                                   Voltage
----                                   -------
vdd                                    1.68007
in                                           0
out                                    1.68007
vin#branch                                   0
vdd#branch                        -3.75037e-11

 Reference value :  2.92382e-08
 Reference value :  1.10316e-07
No. of Data Rows : 60044

  Measurements for Transient Analysis

tphl                =  1.92905e-10 targ=  2.38572e-09 trig=  2.19281e-09
tplh                =  2.90033e-10 targ=  2.28685e-08 trig=  2.25784e-08
i_vdd_avg           =  -3.34519e-06 from=  5.00000e-09 to=  1.10000e-07
power_avg_uw        =  5.62015e+00


Total analysis time (seconds) = 0.397343

Total elapsed time (seconds) = 0.573 

Total DRAM available = 16384.000 MB.
DRAM currently available =  257.281 MB.
Maximum ngspice program size =   17.969 MB.
Current ngspice program size =   17.969 MB.

