
Note: No compatibility mode selected!


Circuit: INV seed characterization sample 20006

Doing analysis at TEMP = 4.731610 and TNOM = 27.000000

Using SPARSE 1.3 as Direct Linear Solver

Initial Transient Solution
--------------------------

Node                                   Voltage
----                                   -------
vdd                                    1.77049
in                                           0
out                                    1.77049
vin#branch                                   0
vdd#branch                        -1.86619e-12

 Reference value :  4.66872e-08
 Reference value :  1.05143e-07
No. of Data Rows : 60044

  Measurements for Transient Analysis

tphl                =  1.33097e-10 targ=  2.24220e-09 trig=  2.10910e-09
tplh                =  2.03503e-10 targ=  2.25308e-08 trig=  2.23273e-08
i_vdd_avg           =  -2.02885e-06 from=  5.00000e-09 to=  1.10001e-07
power_avg_uw        =  3.59206e+00


Total analysis time (seconds) = 0.512091

Total elapsed time (seconds) = 0.606 

Total DRAM available = 16384.000 MB.
DRAM currently available =  259.047 MB.
Maximum ngspice program size =   14.000 MB.
Current ngspice program size =   14.000 MB.

