
Note: No compatibility mode selected!


Circuit: INV seed characterization sample 20000

Doing analysis at TEMP = -2.055900 and TNOM = 27.000000

Using SPARSE 1.3 as Direct Linear Solver

Initial Transient Solution
--------------------------

Node                                   Voltage
----                                   -------
vdd                                    1.92751
in                                           0
out                                    1.92751
vin#branch                                   0
vdd#branch                        -1.95927e-12

 Reference value :  3.40765e-08
 Reference value :  9.41978e-08
No. of Data Rows : 60041

  Measurements for Transient Analysis

tphl                =  1.60380e-10 targ=  2.25476e-09 trig=  2.09438e-09
tplh                =  1.77799e-10 targ=  2.24609e-08 trig=  2.22831e-08
i_vdd_avg           =  -3.10189e-06 from=  5.00000e-09 to=  1.10001e-07
power_avg_uw        =  5.97893e+00


Total analysis time (seconds) = 0.557697

Total elapsed time (seconds) = 0.675 

Total DRAM available = 16384.000 MB.
DRAM currently available =  288.406 MB.
Maximum ngspice program size =   14.062 MB.
Current ngspice program size =   14.062 MB.

