
Note: No compatibility mode selected!


Circuit: INV seed characterization sample 20010

Doing analysis at TEMP = 5.878050 and TNOM = 27.000000

Using SPARSE 1.3 as Direct Linear Solver

Initial Transient Solution
--------------------------

Node                                   Voltage
----                                   -------
vdd                                    1.83989
in                                           0
out                                    1.83989
vin#branch                                   0
vdd#branch                        -1.85744e-12

 Reference value :  4.70458e-08
 Reference value :  1.16331e-07
No. of Data Rows : 60041

  Measurements for Transient Analysis

tphl                =  1.54897e-10 targ=  2.18832e-09 trig=  2.03342e-09
tplh                =  2.83199e-10 targ=  2.23835e-08 trig=  2.21003e-08
i_vdd_avg           =  -5.14581e-06 from=  5.00000e-09 to=  1.10001e-07
power_avg_uw        =  9.46773e+00


Total analysis time (seconds) = 0.49517

Total elapsed time (seconds) = 0.588 

Total DRAM available = 16384.000 MB.
DRAM currently available =  264.578 MB.
Maximum ngspice program size =   13.672 MB.
Current ngspice program size =   13.672 MB.

