
Note: No compatibility mode selected!


Circuit: INV seed characterization sample 20019

Doing analysis at TEMP = 66.814700 and TNOM = 27.000000

Using SPARSE 1.3 as Direct Linear Solver

Initial Transient Solution
--------------------------

Node                                   Voltage
----                                   -------
vdd                                    1.95376
in                                           0
out                                    1.95376
vin#branch                                   0
vdd#branch                        -3.71111e-12

 Reference value :  3.95739e-08
 Reference value :  1.16960e-07
No. of Data Rows : 60046

  Measurements for Transient Analysis

tphl                =  1.60011e-10 targ=  2.17237e-09 trig=  2.01236e-09
tplh                =  1.83500e-10 targ=  2.22206e-08 trig=  2.20371e-08
i_vdd_avg           =  -5.18129e-06 from=  5.00000e-09 to=  1.10002e-07
power_avg_uw        =  1.01230e+01


Total analysis time (seconds) = 0.426508

Total elapsed time (seconds) = 0.527 

Total DRAM available = 16384.000 MB.
DRAM currently available =  272.500 MB.
Maximum ngspice program size =   15.562 MB.
Current ngspice program size =   15.562 MB.

