
Note: No compatibility mode selected!


Circuit: INV seed characterization sample 20017

Doing analysis at TEMP = 58.434300 and TNOM = 27.000000

Using SPARSE 1.3 as Direct Linear Solver

Initial Transient Solution
--------------------------

Node                                   Voltage
----                                   -------
vdd                                    1.84875
in                                           0
out                                    1.84875
vin#branch                                   0
vdd#branch                        -9.47952e-11

 Reference value :  4.64441e-08
No. of Data Rows : 60047

  Measurements for Transient Analysis

tphl                =  1.94819e-10 targ=  2.33937e-09 trig=  2.14455e-09
tplh                =  1.86318e-10 targ=  2.26200e-08 trig=  2.24336e-08
i_vdd_avg           =  -4.95748e-06 from=  5.00000e-09 to=  1.10001e-07
power_avg_uw        =  9.16515e+00


Total analysis time (seconds) = 0.36562

Total elapsed time (seconds) = 0.463 

Total DRAM available = 16384.000 MB.
DRAM currently available =  282.094 MB.
Maximum ngspice program size =   13.953 MB.
Current ngspice program size =   13.953 MB.

