
Note: No compatibility mode selected!


Circuit: INV seed characterization sample 20034

Doing analysis at TEMP = 59.741300 and TNOM = 27.000000

Using SPARSE 1.3 as Direct Linear Solver

Initial Transient Solution
--------------------------

Node                                   Voltage
----                                   -------
vdd                                    1.82025
in                                           0
out                                    1.82025
vin#branch                                   0
vdd#branch                        -2.34882e-12

 Reference value :  4.23651e-08
No. of Data Rows : 60044

  Measurements for Transient Analysis

tphl                =  1.31325e-10 targ=  2.21736e-09 trig=  2.08604e-09
tplh                =  2.10184e-10 targ=  2.24683e-08 trig=  2.22581e-08
i_vdd_avg           =  -1.98704e-06 from=  5.00000e-09 to=  1.10001e-07
power_avg_uw        =  3.61692e+00


Total analysis time (seconds) = 0.378601

Total elapsed time (seconds) = 0.480 

Total DRAM available = 16384.000 MB.
DRAM currently available =  341.250 MB.
Maximum ngspice program size =   15.500 MB.
Current ngspice program size =   15.500 MB.

