
Note: No compatibility mode selected!


Circuit: INV seed characterization sample 20039

Doing analysis at TEMP = 17.358800 and TNOM = 27.000000

Using SPARSE 1.3 as Direct Linear Solver

Initial Transient Solution
--------------------------

Node                                   Voltage
----                                   -------
vdd                                     1.9323
in                                           0
out                                     1.9323
vin#branch                                   0
vdd#branch                        -2.28741e-12

 Reference value :  5.11679e-08
 Reference value :  1.18563e-07
No. of Data Rows : 60041

  Measurements for Transient Analysis

tphl                =  4.97786e-11 targ=  2.08822e-09 trig=  2.03844e-09
tplh                =  5.23819e-11 targ=  2.21677e-08 trig=  2.21153e-08
i_vdd_avg           =  -1.21009e-06 from=  5.00000e-09 to=  1.10001e-07
power_avg_uw        =  2.33826e+00


Total analysis time (seconds) = 0.431192

Total elapsed time (seconds) = 0.520 

Total DRAM available = 16384.000 MB.
DRAM currently available =  305.156 MB.
Maximum ngspice program size =   14.688 MB.
Current ngspice program size =   14.688 MB.

