
Note: No compatibility mode selected!


Circuit: INV seed characterization sample 20042

Doing analysis at TEMP = 42.341000 and TNOM = 27.000000

Using SPARSE 1.3 as Direct Linear Solver

Initial Transient Solution
--------------------------

Node                                   Voltage
----                                   -------
vdd                                    1.65489
in                                           0
out                                    1.65489
vin#branch                                   0
vdd#branch                        -3.42937e-12

 Reference value :  3.96224e-08
No. of Data Rows : 60041

  Measurements for Transient Analysis

tphl                =  1.33511e-10 targ=  2.25286e-09 trig=  2.11935e-09
tplh                =  1.40410e-10 targ=  2.24984e-08 trig=  2.23580e-08
i_vdd_avg           =  -1.90385e-06 from=  5.00000e-09 to=  1.10000e-07
power_avg_uw        =  3.15066e+00


Total analysis time (seconds) = 0.399384

Total elapsed time (seconds) = 0.494 

Total DRAM available = 16384.000 MB.
DRAM currently available =  312.859 MB.
Maximum ngspice program size =   15.375 MB.
Current ngspice program size =   15.375 MB.

