
Note: No compatibility mode selected!


Circuit: INV seed characterization sample 20049

Doing analysis at TEMP = 67.049700 and TNOM = 27.000000

Using SPARSE 1.3 as Direct Linear Solver

Initial Transient Solution
--------------------------

Node                                   Voltage
----                                   -------
vdd                                     1.9166
in                                           0
out                                     1.9166
vin#branch                                   0
vdd#branch                        -2.33863e-12

 Reference value :  3.73617e-08
 Reference value :  1.11756e-07
No. of Data Rows : 60044

  Measurements for Transient Analysis

tphl                =  7.92220e-11 targ=  2.13739e-09 trig=  2.05816e-09
tplh                =  8.59988e-11 targ=  2.22605e-08 trig=  2.21745e-08
i_vdd_avg           =  -5.54516e-07 from=  5.00000e-09 to=  1.10002e-07
power_avg_uw        =  1.06278e+00


Total analysis time (seconds) = 0.495922

Total elapsed time (seconds) = 0.592 

Total DRAM available = 16384.000 MB.
DRAM currently available =  197.484 MB.
Maximum ngspice program size =   14.656 MB.
Current ngspice program size =   14.656 MB.

