
Note: No compatibility mode selected!


Circuit: INV seed characterization sample 20044

Doing analysis at TEMP = -7.783940 and TNOM = 27.000000

Using SPARSE 1.3 as Direct Linear Solver

Initial Transient Solution
--------------------------

Node                                   Voltage
----                                   -------
vdd                                    1.62299
in                                           0
out                                    1.62299
vin#branch                                   0
vdd#branch                        -1.88084e-12

 Reference value :  5.42718e-08
No. of Data Rows : 60041

  Measurements for Transient Analysis

tphl                =  1.77921e-10 targ=  2.42434e-09 trig=  2.24642e-09
tplh                =  2.33959e-10 targ=  2.29732e-08 trig=  2.27393e-08
i_vdd_avg           =  -1.69557e-06 from=  5.00000e-09 to=  1.10001e-07
power_avg_uw        =  2.75189e+00


Total analysis time (seconds) = 0.363198

Total elapsed time (seconds) = 0.443 

Total DRAM available = 16384.000 MB.
DRAM currently available =  321.719 MB.
Maximum ngspice program size =   13.984 MB.
Current ngspice program size =   13.984 MB.

