
Note: No compatibility mode selected!


Circuit: INV seed characterization sample 20046

Doing analysis at TEMP = 78.716300 and TNOM = 27.000000

Using SPARSE 1.3 as Direct Linear Solver

Initial Transient Solution
--------------------------

Node                                   Voltage
----                                   -------
vdd                                    1.95726
in                                           0
out                                    1.95726
vin#branch                                   0
vdd#branch                         -4.7038e-12

 Reference value :  5.23528e-08
No. of Data Rows : 60068

  Measurements for Transient Analysis

tphl                =  1.55691e-10 targ=  2.16229e-09 trig=  2.00659e-09
tplh                =  1.36169e-10 targ=  2.21560e-08 trig=  2.20198e-08
i_vdd_avg           =  -4.11654e-06 from=  5.00000e-09 to=  1.10001e-07
power_avg_uw        =  8.05714e+00


Total analysis time (seconds) = 0.383651

Total elapsed time (seconds) = 0.470 

Total DRAM available = 16384.000 MB.
DRAM currently available =  315.141 MB.
Maximum ngspice program size =   13.938 MB.
Current ngspice program size =   13.344 MB.

