
Note: No compatibility mode selected!


Circuit: INV seed characterization sample 20053

Doing analysis at TEMP = 50.496000 and TNOM = 27.000000

Using SPARSE 1.3 as Direct Linear Solver

Initial Transient Solution
--------------------------

Node                                   Voltage
----                                   -------
vdd                                    1.79418
in                                           0
out                                    1.79418
vin#branch                                   0
vdd#branch                        -1.21717e-11

 Reference value :  5.60567e-08
No. of Data Rows : 60044

  Measurements for Transient Analysis

tphl                =  4.45415e-10 targ=  2.58727e-09 trig=  2.14185e-09
tplh                =  6.12464e-10 targ=  2.30380e-08 trig=  2.24256e-08
i_vdd_avg           =  -3.56551e-06 from=  5.00000e-09 to=  1.10000e-07
power_avg_uw        =  6.39717e+00


Total analysis time (seconds) = 0.346748

Total elapsed time (seconds) = 0.428 

Total DRAM available = 16384.000 MB.
DRAM currently available =  288.547 MB.
Maximum ngspice program size =   13.828 MB.
Current ngspice program size =   13.828 MB.

