
Note: No compatibility mode selected!


Circuit: INV seed characterization sample 20050

Doing analysis at TEMP = -0.541784 and TNOM = 27.000000

Using SPARSE 1.3 as Direct Linear Solver

Initial Transient Solution
--------------------------

Node                                   Voltage
----                                   -------
vdd                                    1.85819
in                                           0
out                                    1.85819
vin#branch                                   0
vdd#branch                        -3.98204e-12

 Reference value :  5.93135e-08
No. of Data Rows : 60053

  Measurements for Transient Analysis

tphl                =  8.51271e-11 targ=  2.09279e-09 trig=  2.00766e-09
tplh                =  7.95333e-11 targ=  2.21025e-08 trig=  2.20230e-08
i_vdd_avg           =  -4.43548e-06 from=  5.00000e-09 to=  1.10001e-07
power_avg_uw        =  8.24196e+00


Total analysis time (seconds) = 0.323169

Total elapsed time (seconds) = 0.403 

Total DRAM available = 16384.000 MB.
DRAM currently available =  316.234 MB.
Maximum ngspice program size =   14.391 MB.
Current ngspice program size =   14.391 MB.

