
Note: No compatibility mode selected!


Circuit: INV seed characterization sample 20056

Doing analysis at TEMP = 29.054100 and TNOM = 27.000000

Using SPARSE 1.3 as Direct Linear Solver

Initial Transient Solution
--------------------------

Node                                   Voltage
----                                   -------
vdd                                    1.89607
in                                           0
out                                    1.89607
vin#branch                                   0
vdd#branch                        -1.47352e-11

 Reference value :  5.76900e-08
No. of Data Rows : 60041

  Measurements for Transient Analysis

tphl                =  1.07753e-10 targ=  2.18824e-09 trig=  2.08049e-09
tplh                =  1.49830e-10 targ=  2.23913e-08 trig=  2.22415e-08
i_vdd_avg           =  -3.20897e-06 from=  5.00000e-09 to=  1.10001e-07
power_avg_uw        =  6.08442e+00


Total analysis time (seconds) = 0.327546

Total elapsed time (seconds) = 0.410 

Total DRAM available = 16384.000 MB.
DRAM currently available =  300.812 MB.
Maximum ngspice program size =   13.672 MB.
Current ngspice program size =   13.672 MB.

