
Note: No compatibility mode selected!


Circuit: INV seed characterization sample 20061

Doing analysis at TEMP = 68.546200 and TNOM = 27.000000

Using SPARSE 1.3 as Direct Linear Solver

Initial Transient Solution
--------------------------

Node                                   Voltage
----                                   -------
vdd                                     1.8808
in                                           0
out                                     1.8808
vin#branch                                   0
vdd#branch                        -3.18153e-12

 Reference value :  5.73035e-08
No. of Data Rows : 60044

  Measurements for Transient Analysis

tphl                =  1.55677e-10 targ=  2.19792e-09 trig=  2.04224e-09
tplh                =  1.56261e-10 targ=  2.22830e-08 trig=  2.21267e-08
i_vdd_avg           =  -3.59049e-06 from=  5.00000e-09 to=  1.10002e-07
power_avg_uw        =  6.75300e+00


Total analysis time (seconds) = 0.324154

Total elapsed time (seconds) = 0.408 

Total DRAM available = 16384.000 MB.
DRAM currently available =  295.062 MB.
Maximum ngspice program size =   13.656 MB.
Current ngspice program size =   13.656 MB.

