
Note: No compatibility mode selected!


Circuit: INV seed characterization sample 20060

Doing analysis at TEMP = 8.383680 and TNOM = 27.000000

Using SPARSE 1.3 as Direct Linear Solver

Initial Transient Solution
--------------------------

Node                                   Voltage
----                                   -------
vdd                                    1.63367
in                                           0
out                                    1.63367
vin#branch                                   0
vdd#branch                        -1.74667e-12

 Reference value :  5.79608e-08
No. of Data Rows : 60044

  Measurements for Transient Analysis

tphl                =  2.18440e-10 targ=  2.32836e-09 trig=  2.10992e-09
tplh                =  2.41110e-10 targ=  2.25709e-08 trig=  2.23297e-08
i_vdd_avg           =  -4.62997e-06 from=  5.00000e-09 to=  1.10001e-07
power_avg_uw        =  7.56385e+00


Total analysis time (seconds) = 0.326636

Total elapsed time (seconds) = 0.409 

Total DRAM available = 16384.000 MB.
DRAM currently available =  295.062 MB.
Maximum ngspice program size =   13.156 MB.
Current ngspice program size =   12.953 MB.

