
Note: No compatibility mode selected!


Circuit: INV seed characterization sample 20064

Doing analysis at TEMP = 88.371900 and TNOM = 27.000000

Using SPARSE 1.3 as Direct Linear Solver

Initial Transient Solution
--------------------------

Node                                   Voltage
----                                   -------
vdd                                    1.68376
in                                           0
out                                    1.68376
vin#branch                                   0
vdd#branch                        -3.39238e-12

 Reference value :  5.71564e-08
No. of Data Rows : 60047

  Measurements for Transient Analysis

tphl                =  4.63395e-10 targ=  2.53310e-09 trig=  2.06971e-09
tplh                =  7.88430e-10 targ=  2.29976e-08 trig=  2.22091e-08
i_vdd_avg           =  -4.26316e-06 from=  5.00000e-09 to=  1.10002e-07
power_avg_uw        =  7.17814e+00


Total analysis time (seconds) = 0.328759

Total elapsed time (seconds) = 0.413 

Total DRAM available = 16384.000 MB.
DRAM currently available =  274.078 MB.
Maximum ngspice program size =   14.609 MB.
Current ngspice program size =   14.609 MB.

