
Note: No compatibility mode selected!


Circuit: INV seed characterization sample 20065

Doing analysis at TEMP = 61.088400 and TNOM = 27.000000

Using SPARSE 1.3 as Direct Linear Solver

Initial Transient Solution
--------------------------

Node                                   Voltage
----                                   -------
vdd                                    1.79834
in                                           0
out                                    1.79834
vin#branch                                   0
vdd#branch                        -1.16019e-10

 Reference value :  5.65872e-08
No. of Data Rows : 60044

  Measurements for Transient Analysis

tphl                =  3.51925e-11 targ=  2.05141e-09 trig=  2.01622e-09
tplh                =  3.55644e-11 targ=  2.20842e-08 trig=  2.20487e-08
i_vdd_avg           =  -1.25418e-06 from=  5.00000e-09 to=  1.10002e-07
power_avg_uw        =  2.25544e+00


Total analysis time (seconds) = 0.331525

Total elapsed time (seconds) = 0.413 

Total DRAM available = 16384.000 MB.
DRAM currently available =  218.469 MB.
Maximum ngspice program size =   13.859 MB.
Current ngspice program size =   13.859 MB.

