
Note: No compatibility mode selected!


Circuit: INV seed characterization sample 20062

Doing analysis at TEMP = 79.087800 and TNOM = 27.000000

Using SPARSE 1.3 as Direct Linear Solver

Initial Transient Solution
--------------------------

Node                                   Voltage
----                                   -------
vdd                                    1.75231
in                                           0
out                                    1.75231
vin#branch                                   0
vdd#branch                        -5.90315e-11

 Reference value :  5.22592e-08
No. of Data Rows : 60044

  Measurements for Transient Analysis

tphl                =  2.26092e-10 targ=  2.28920e-09 trig=  2.06311e-09
tplh                =  2.63423e-10 targ=  2.24528e-08 trig=  2.21893e-08
i_vdd_avg           =  -1.25516e-06 from=  5.00000e-09 to=  1.10001e-07
power_avg_uw        =  2.19942e+00


Total analysis time (seconds) = 0.339663

Total elapsed time (seconds) = 0.432 

Total DRAM available = 16384.000 MB.
DRAM currently available =  262.797 MB.
Maximum ngspice program size =   16.172 MB.
Current ngspice program size =   16.172 MB.

