
Note: No compatibility mode selected!


Circuit: INV seed characterization sample 20068

Doing analysis at TEMP = 32.872500 and TNOM = 27.000000

Using SPARSE 1.3 as Direct Linear Solver

Initial Transient Solution
--------------------------

Node                                   Voltage
----                                   -------
vdd                                    1.66511
in                                           0
out                                    1.66511
vin#branch                                   0
vdd#branch                        -1.36424e-11

 Reference value :  5.65341e-08
No. of Data Rows : 60047

  Measurements for Transient Analysis

tphl                =  1.58647e-10 targ=  2.32821e-09 trig=  2.16956e-09
tplh                =  1.97496e-10 targ=  2.27062e-08 trig=  2.25087e-08
i_vdd_avg           =  -1.21329e-06 from=  5.00000e-09 to=  1.10001e-07
power_avg_uw        =  2.02026e+00


Total analysis time (seconds) = 0.334079

Total elapsed time (seconds) = 0.416 

Total DRAM available = 16384.000 MB.
DRAM currently available =  135.719 MB.
Maximum ngspice program size =   13.609 MB.
Current ngspice program size =   13.609 MB.

