
Note: No compatibility mode selected!


Circuit: INV seed characterization sample 20077

Doing analysis at TEMP = 76.922400 and TNOM = 27.000000

Using SPARSE 1.3 as Direct Linear Solver

Initial Transient Solution
--------------------------

Node                                   Voltage
----                                   -------
vdd                                    1.93794
in                                           0
out                                    1.93794
vin#branch                                   0
vdd#branch                        -2.00838e-10

 Reference value :  5.63402e-08
No. of Data Rows : 60047

  Measurements for Transient Analysis

tphl                =  2.17781e-10 targ=  2.36840e-09 trig=  2.15062e-09
tplh                =  2.21763e-10 targ=  2.26736e-08 trig=  2.24519e-08
i_vdd_avg           =  -5.99086e-06 from=  5.00000e-09 to=  1.10001e-07
power_avg_uw        =  1.16099e+01


Total analysis time (seconds) = 0.329284

Total elapsed time (seconds) = 0.414 

Total DRAM available = 16384.000 MB.
DRAM currently available =  130.766 MB.
Maximum ngspice program size =   13.641 MB.
Current ngspice program size =   13.641 MB.

