
Note: No compatibility mode selected!


Circuit: INV seed characterization sample 20079

Doing analysis at TEMP = -16.075500 and TNOM = 27.000000

Using SPARSE 1.3 as Direct Linear Solver

Initial Transient Solution
--------------------------

Node                                   Voltage
----                                   -------
vdd                                    1.74556
in                                           0
out                                    1.74556
vin#branch                                   0
vdd#branch                        -1.75687e-12

 Reference value :  5.85783e-08
No. of Data Rows : 60047

  Measurements for Transient Analysis

tphl                =  2.10973e-10 targ=  2.45263e-09 trig=  2.24166e-09
tplh                =  2.50441e-10 targ=  2.29754e-08 trig=  2.27250e-08
i_vdd_avg           =  -3.04992e-06 from=  5.00000e-09 to=  1.10002e-07
power_avg_uw        =  5.32382e+00


Total analysis time (seconds) = 0.320897

Total elapsed time (seconds) = 0.403 

Total DRAM available = 16384.000 MB.
DRAM currently available =  136.734 MB.
Maximum ngspice program size =   14.641 MB.
Current ngspice program size =   14.641 MB.

