
Note: No compatibility mode selected!


Circuit: INV seed characterization sample 20075

Doing analysis at TEMP = 13.488300 and TNOM = 27.000000

Using SPARSE 1.3 as Direct Linear Solver

Initial Transient Solution
--------------------------

Node                                   Voltage
----                                   -------
vdd                                    1.65707
in                                           0
out                                    1.65707
vin#branch                                   0
vdd#branch                        -1.95408e-12

 Reference value :  5.88894e-08
No. of Data Rows : 60044

  Measurements for Transient Analysis

tphl                =  1.83025e-10 targ=  2.41922e-09 trig=  2.23620e-09
tplh                =  2.45989e-10 targ=  2.29546e-08 trig=  2.27086e-08
i_vdd_avg           =  -2.27319e-06 from=  5.00000e-09 to=  1.10002e-07
power_avg_uw        =  3.76683e+00


Total analysis time (seconds) = 0.323325

Total elapsed time (seconds) = 0.405 

Total DRAM available = 16384.000 MB.
DRAM currently available =  151.109 MB.
Maximum ngspice program size =   13.281 MB.
Current ngspice program size =   13.281 MB.

