
Note: No compatibility mode selected!


Circuit: INV seed characterization sample 20076

Doing analysis at TEMP = 70.549800 and TNOM = 27.000000

Using SPARSE 1.3 as Direct Linear Solver

Initial Transient Solution
--------------------------

Node                                   Voltage
----                                   -------
vdd                                    1.66803
in                                           0
out                                    1.66803
vin#branch                                   0
vdd#branch                        -2.24691e-12

 Reference value :  5.73243e-08
No. of Data Rows : 60047

  Measurements for Transient Analysis

tphl                =  6.29088e-10 targ=  2.87374e-09 trig=  2.24466e-09
tplh                =  9.60832e-10 targ=  2.36948e-08 trig=  2.27340e-08
i_vdd_avg           =  -4.88358e-06 from=  5.00000e-09 to=  1.10002e-07
power_avg_uw        =  8.14596e+00


Total analysis time (seconds) = 0.326847

Total elapsed time (seconds) = 0.412 

Total DRAM available = 16384.000 MB.
DRAM currently available =  151.109 MB.
Maximum ngspice program size =   14.953 MB.
Current ngspice program size =   14.953 MB.

