
Note: No compatibility mode selected!


Circuit: INV seed characterization sample 20089

Doing analysis at TEMP = -6.727200 and TNOM = 27.000000

Using SPARSE 1.3 as Direct Linear Solver

Initial Transient Solution
--------------------------

Node                                   Voltage
----                                   -------
vdd                                    1.73083
in                                           0
out                                    1.73083
vin#branch                                   0
vdd#branch                        -1.79984e-12

 Reference value :  5.71445e-08
No. of Data Rows : 60047

  Measurements for Transient Analysis

tphl                =  4.86184e-10 targ=  2.65893e-09 trig=  2.17275e-09
tplh                =  7.36854e-10 targ=  2.32551e-08 trig=  2.25182e-08
i_vdd_avg           =  -3.51312e-06 from=  5.00000e-09 to=  1.10002e-07
power_avg_uw        =  6.08061e+00


Total analysis time (seconds) = 0.32399

Total elapsed time (seconds) = 0.408 

Total DRAM available = 16384.000 MB.
DRAM currently available =  151.281 MB.
Maximum ngspice program size =   13.312 MB.
Current ngspice program size =   13.312 MB.

