
Note: No compatibility mode selected!


Circuit: INV seed characterization sample 20087

Doing analysis at TEMP = 41.397100 and TNOM = 27.000000

Using SPARSE 1.3 as Direct Linear Solver

Initial Transient Solution
--------------------------

Node                                   Voltage
----                                   -------
vdd                                    1.70836
in                                           0
out                                    1.70836
vin#branch                                   0
vdd#branch                        -2.43173e-12

 Reference value :  5.75842e-08
No. of Data Rows : 60047

  Measurements for Transient Analysis

tphl                =  2.78175e-10 targ=  2.40880e-09 trig=  2.13062e-09
tplh                =  3.37336e-10 targ=  2.27292e-08 trig=  2.23919e-08
i_vdd_avg           =  -2.76235e-06 from=  5.00000e-09 to=  1.10001e-07
power_avg_uw        =  4.71909e+00


Total analysis time (seconds) = 0.324322

Total elapsed time (seconds) = 0.409 

Total DRAM available = 16384.000 MB.
DRAM currently available =  158.953 MB.
Maximum ngspice program size =   13.484 MB.
Current ngspice program size =   13.062 MB.

