
Note: No compatibility mode selected!


Circuit: INV seed characterization sample 20086

Doing analysis at TEMP = 92.995600 and TNOM = 27.000000

Using SPARSE 1.3 as Direct Linear Solver

Initial Transient Solution
--------------------------

Node                                   Voltage
----                                   -------
vdd                                     1.9382
in                                           0
out                                     1.9382
vin#branch                                   0
vdd#branch                        -3.02247e-10

 Reference value :  5.88567e-08
No. of Data Rows : 60044

  Measurements for Transient Analysis

tphl                =  1.75589e-10 targ=  2.32443e-09 trig=  2.14884e-09
tplh                =  2.47759e-10 targ=  2.26943e-08 trig=  2.24465e-08
i_vdd_avg           =  -2.19467e-06 from=  5.00000e-09 to=  1.10000e-07
power_avg_uw        =  4.25371e+00


Total analysis time (seconds) = 0.326886

Total elapsed time (seconds) = 0.408 

Total DRAM available = 16384.000 MB.
DRAM currently available =  158.953 MB.
Maximum ngspice program size =   13.984 MB.
Current ngspice program size =   13.750 MB.

