
Note: No compatibility mode selected!


Circuit: INV seed characterization sample 20081

Doing analysis at TEMP = 0.063423 and TNOM = 27.000000

Using SPARSE 1.3 as Direct Linear Solver

Initial Transient Solution
--------------------------

Node                                   Voltage
----                                   -------
vdd                                    1.62968
in                                           0
out                                    1.62968
vin#branch                                   0
vdd#branch                        -1.71396e-12

 Reference value :  5.70007e-08
No. of Data Rows : 60044

  Measurements for Transient Analysis

tphl                =  2.50000e-10 targ=  2.47587e-09 trig=  2.22587e-09
tplh                =  2.78732e-10 targ=  2.29563e-08 trig=  2.26776e-08
i_vdd_avg           =  -5.46959e-06 from=  5.00000e-09 to=  1.10000e-07
power_avg_uw        =  8.91369e+00


Total analysis time (seconds) = 0.351203

Total elapsed time (seconds) = 0.435 

Total DRAM available = 16384.000 MB.
DRAM currently available =  118.688 MB.
Maximum ngspice program size =   14.109 MB.
Current ngspice program size =   14.109 MB.

