
Note: No compatibility mode selected!


Circuit: INV seed characterization sample 20085

Doing analysis at TEMP = 56.912700 and TNOM = 27.000000

Using SPARSE 1.3 as Direct Linear Solver

Initial Transient Solution
--------------------------

Node                                   Voltage
----                                   -------
vdd                                    1.74679
in                                           0
out                                    1.74679
vin#branch                                   0
vdd#branch                        -2.30455e-12

 Reference value :  5.70337e-08
No. of Data Rows : 60041

  Measurements for Transient Analysis

tphl                =  2.15175e-10 targ=  2.43353e-09 trig=  2.21836e-09
tplh                =  2.94125e-10 targ=  2.29492e-08 trig=  2.26551e-08
i_vdd_avg           =  -2.23613e-06 from=  5.00000e-09 to=  1.10000e-07
power_avg_uw        =  3.90605e+00


Total analysis time (seconds) = 0.330238

Total elapsed time (seconds) = 0.415 

Total DRAM available = 16384.000 MB.
DRAM currently available =  152.688 MB.
Maximum ngspice program size =   14.422 MB.
Current ngspice program size =   14.422 MB.

