
Note: No compatibility mode selected!


Circuit: INV seed characterization sample 20093

Doing analysis at TEMP = 83.381600 and TNOM = 27.000000

Using SPARSE 1.3 as Direct Linear Solver

Initial Transient Solution
--------------------------

Node                                   Voltage
----                                   -------
vdd                                    1.72342
in                                           0
out                                    1.72342
vin#branch                                   0
vdd#branch                         -2.2689e-11

 Reference value :  5.28115e-08
No. of Data Rows : 60041

  Measurements for Transient Analysis

tphl                =  1.97571e-10 targ=  2.30884e-09 trig=  2.11127e-09
tplh                =  2.18703e-10 targ=  2.25525e-08 trig=  2.23338e-08
i_vdd_avg           =  -2.44440e-06 from=  5.00000e-09 to=  1.10000e-07
power_avg_uw        =  4.21273e+00


Total analysis time (seconds) = 0.356229

Total elapsed time (seconds) = 0.438 

Total DRAM available = 16384.000 MB.
DRAM currently available =  153.953 MB.
Maximum ngspice program size =   13.812 MB.
Current ngspice program size =   13.812 MB.

