
Note: No compatibility mode selected!


Circuit: INV seed characterization sample 20099

Doing analysis at TEMP = 6.570950 and TNOM = 27.000000

Using SPARSE 1.3 as Direct Linear Solver

Initial Transient Solution
--------------------------

Node                                   Voltage
----                                   -------
vdd                                    1.86198
in                                           0
out                                    1.86198
vin#branch                                   0
vdd#branch                        -2.07178e-12

 Reference value :  5.67657e-08
No. of Data Rows : 60041

  Measurements for Transient Analysis

tphl                =  1.02772e-10 targ=  2.15215e-09 trig=  2.04937e-09
tplh                =  1.09017e-10 targ=  2.22571e-08 trig=  2.21481e-08
i_vdd_avg           =  -3.27188e-06 from=  5.00000e-09 to=  1.10000e-07
power_avg_uw        =  6.09217e+00


Total analysis time (seconds) = 0.323154

Total elapsed time (seconds) = 0.410 

Total DRAM available = 16384.000 MB.
DRAM currently available =  153.531 MB.
Maximum ngspice program size =   12.969 MB.
Current ngspice program size =   12.391 MB.

