
Note: No compatibility mode selected!


Circuit: INV seed characterization sample 20091

Doing analysis at TEMP = 43.474000 and TNOM = 27.000000

Using SPARSE 1.3 as Direct Linear Solver

Initial Transient Solution
--------------------------

Node                                   Voltage
----                                   -------
vdd                                    1.76612
in                                           0
out                                    1.76612
vin#branch                                   0
vdd#branch                        -1.87045e-12

 Reference value :  5.49514e-08
No. of Data Rows : 60044

  Measurements for Transient Analysis

tphl                =  1.74222e-10 targ=  2.39640e-09 trig=  2.22218e-09
tplh                =  2.28620e-10 targ=  2.28952e-08 trig=  2.26665e-08
i_vdd_avg           =  -1.03436e-06 from=  5.00000e-09 to=  1.10002e-07
power_avg_uw        =  1.82680e+00


Total analysis time (seconds) = 0.343831

Total elapsed time (seconds) = 0.428 

Total DRAM available = 16384.000 MB.
DRAM currently available =  144.828 MB.
Maximum ngspice program size =   13.516 MB.
Current ngspice program size =   13.297 MB.

