
Note: No compatibility mode selected!


Circuit: INV seed characterization sample 20097

Doing analysis at TEMP = 25.268700 and TNOM = 27.000000

Using SPARSE 1.3 as Direct Linear Solver

Initial Transient Solution
--------------------------

Node                                   Voltage
----                                   -------
vdd                                    1.91955
in                                           0
out                                    1.91955
vin#branch                                   0
vdd#branch                        -1.95467e-12

 Reference value :  5.90680e-08
No. of Data Rows : 60041

  Measurements for Transient Analysis

tphl                =  3.79273e-10 targ=  2.49476e-09 trig=  2.11549e-09
tplh                =  4.32685e-10 targ=  2.27792e-08 trig=  2.23465e-08
i_vdd_avg           =  -5.33374e-06 from=  5.00000e-09 to=  1.10001e-07
power_avg_uw        =  1.02384e+01


Total analysis time (seconds) = 0.322494

Total elapsed time (seconds) = 0.404 

Total DRAM available = 16384.000 MB.
DRAM currently available =  151.516 MB.
Maximum ngspice program size =   13.453 MB.
Current ngspice program size =   12.859 MB.

