
Note: No compatibility mode selected!


Circuit: INV seed characterization sample 20104

Doing analysis at TEMP = 85.601300 and TNOM = 27.000000

Using SPARSE 1.3 as Direct Linear Solver

Initial Transient Solution
--------------------------

Node                                   Voltage
----                                   -------
vdd                                     1.9731
in                                           0
out                                     1.9731
vin#branch                                   0
vdd#branch                        -1.26362e-10

 Reference value :  5.77958e-08
No. of Data Rows : 60041

  Measurements for Transient Analysis

tphl                =  6.18427e-11 targ=  2.08322e-09 trig=  2.02138e-09
tplh                =  5.32195e-11 targ=  2.21174e-08 trig=  2.20641e-08
i_vdd_avg           =  -5.72880e-07 from=  5.00000e-09 to=  1.10001e-07
power_avg_uw        =  1.13035e+00


Total analysis time (seconds) = 0.3783

Total elapsed time (seconds) = 0.460 

Total DRAM available = 16384.000 MB.
DRAM currently available =  166.406 MB.
Maximum ngspice program size =   13.859 MB.
Current ngspice program size =   13.859 MB.

