
Note: No compatibility mode selected!


Circuit: INV seed characterization sample 20102

Doing analysis at TEMP = 65.902500 and TNOM = 27.000000

Using SPARSE 1.3 as Direct Linear Solver

Initial Transient Solution
--------------------------

Node                                   Voltage
----                                   -------
vdd                                    1.78413
in                                           0
out                                    1.78413
vin#branch                                   0
vdd#branch                        -8.87493e-12

 Reference value :  5.84480e-08
No. of Data Rows : 60047

  Measurements for Transient Analysis

tphl                =  3.22492e-10 targ=  2.52100e-09 trig=  2.19850e-09
tplh                =  3.62691e-10 targ=  2.29582e-08 trig=  2.25955e-08
i_vdd_avg           =  -4.51267e-06 from=  5.00000e-09 to=  1.10001e-07
power_avg_uw        =  8.05119e+00


Total analysis time (seconds) = 0.325231

Total elapsed time (seconds) = 0.407 

Total DRAM available = 16384.000 MB.
DRAM currently available =  155.219 MB.
Maximum ngspice program size =   14.703 MB.
Current ngspice program size =   14.703 MB.

