
Note: No compatibility mode selected!


Circuit: INV seed characterization sample 20106

Doing analysis at TEMP = 86.829600 and TNOM = 27.000000

Using SPARSE 1.3 as Direct Linear Solver

Initial Transient Solution
--------------------------

Node                                   Voltage
----                                   -------
vdd                                    1.87262
in                                           0
out                                    1.87262
vin#branch                                   0
vdd#branch                         -4.5341e-12

 Reference value :  5.90765e-08
No. of Data Rows : 60044

  Measurements for Transient Analysis

tphl                =  9.80386e-11 targ=  2.21681e-09 trig=  2.11878e-09
tplh                =  1.16434e-10 targ=  2.24728e-08 trig=  2.23563e-08
i_vdd_avg           =  -9.20346e-07 from=  5.00000e-09 to=  1.10000e-07
power_avg_uw        =  1.72346e+00


Total analysis time (seconds) = 0.322065

Total elapsed time (seconds) = 0.407 

Total DRAM available = 16384.000 MB.
DRAM currently available =  101.859 MB.
Maximum ngspice program size =   14.625 MB.
Current ngspice program size =   14.625 MB.

