
Note: No compatibility mode selected!


Circuit: INV seed characterization sample 20109

Doing analysis at TEMP = -15.998700 and TNOM = 27.000000

Using SPARSE 1.3 as Direct Linear Solver

Initial Transient Solution
--------------------------

Node                                   Voltage
----                                   -------
vdd                                    1.89383
in                                           0
out                                    1.89383
vin#branch                                   0
vdd#branch                        -1.90413e-12

 Reference value :  5.54377e-08
No. of Data Rows : 60041

  Measurements for Transient Analysis

tphl                =  2.64845e-10 targ=  2.34017e-09 trig=  2.07533e-09
tplh                =  2.85400e-10 targ=  2.25114e-08 trig=  2.22260e-08
i_vdd_avg           =  -3.67533e-06 from=  5.00000e-09 to=  1.10000e-07
power_avg_uw        =  6.96045e+00


Total analysis time (seconds) = 0.33195

Total elapsed time (seconds) = 0.417 

Total DRAM available = 16384.000 MB.
DRAM currently available =   99.469 MB.
Maximum ngspice program size =   12.969 MB.
Current ngspice program size =   12.500 MB.

