
Note: No compatibility mode selected!


Circuit: INV seed characterization sample 20103

Doing analysis at TEMP = 87.922200 and TNOM = 27.000000

Using SPARSE 1.3 as Direct Linear Solver

Initial Transient Solution
--------------------------

Node                                   Voltage
----                                   -------
vdd                                    1.85508
in                                           0
out                                    1.85508
vin#branch                                   0
vdd#branch                        -3.63105e-12

 Reference value :  5.86504e-08
No. of Data Rows : 60047

  Measurements for Transient Analysis

tphl                =  2.71552e-10 targ=  2.32923e-09 trig=  2.05768e-09
tplh                =  3.59845e-10 targ=  2.25329e-08 trig=  2.21730e-08
i_vdd_avg           =  -2.82608e-06 from=  5.00000e-09 to=  1.10002e-07
power_avg_uw        =  5.24260e+00


Total analysis time (seconds) = 0.323727

Total elapsed time (seconds) = 0.405 

Total DRAM available = 16384.000 MB.
DRAM currently available =  166.406 MB.
Maximum ngspice program size =   13.547 MB.
Current ngspice program size =   13.219 MB.

