
Note: No compatibility mode selected!


Circuit: INV seed characterization sample 20112

Doing analysis at TEMP = 98.725000 and TNOM = 27.000000

Using SPARSE 1.3 as Direct Linear Solver

Initial Transient Solution
--------------------------

Node                                   Voltage
----                                   -------
vdd                                    1.69746
in                                           0
out                                    1.69746
vin#branch                                   0
vdd#branch                        -1.27403e-11

 Reference value :  5.70444e-08
No. of Data Rows : 60047

  Measurements for Transient Analysis

tphl                =  1.47170e-10 targ=  2.23785e-09 trig=  2.09068e-09
tplh                =  1.72987e-10 targ=  2.24450e-08 trig=  2.22720e-08
i_vdd_avg           =  -2.75376e-06 from=  5.00000e-09 to=  1.10002e-07
power_avg_uw        =  4.67439e+00


Total analysis time (seconds) = 0.325173

Total elapsed time (seconds) = 0.410 

Total DRAM available = 16384.000 MB.
DRAM currently available =  103.203 MB.
Maximum ngspice program size =   13.000 MB.
Current ngspice program size =   12.500 MB.

