
Note: No compatibility mode selected!


Circuit: INV seed characterization sample 20114

Doing analysis at TEMP = 62.791300 and TNOM = 27.000000

Using SPARSE 1.3 as Direct Linear Solver

Initial Transient Solution
--------------------------

Node                                   Voltage
----                                   -------
vdd                                    1.89152
in                                           0
out                                    1.89152
vin#branch                                   0
vdd#branch                        -1.00559e-11

 Reference value :  5.42542e-08
No. of Data Rows : 60047

  Measurements for Transient Analysis

tphl                =  9.34484e-11 targ=  2.14805e-09 trig=  2.05461e-09
tplh                =  1.22635e-10 targ=  2.22865e-08 trig=  2.21638e-08
i_vdd_avg           =  -1.40975e-06 from=  5.00000e-09 to=  1.10001e-07
power_avg_uw        =  2.66657e+00


Total analysis time (seconds) = 0.332367

Total elapsed time (seconds) = 0.424 

Total DRAM available = 16384.000 MB.
DRAM currently available =   90.438 MB.
Maximum ngspice program size =   14.750 MB.
Current ngspice program size =   14.750 MB.

