
Note: No compatibility mode selected!


Circuit: INV seed characterization sample 20111

Doing analysis at TEMP = 93.769900 and TNOM = 27.000000

Using SPARSE 1.3 as Direct Linear Solver

Initial Transient Solution
--------------------------

Node                                   Voltage
----                                   -------
vdd                                    1.72038
in                                           0
out                                    1.72038
vin#branch                                   0
vdd#branch                        -2.70404e-11

 Reference value :  5.78407e-08
No. of Data Rows : 60044

  Measurements for Transient Analysis

tphl                =  3.23272e-10 targ=  2.33310e-09 trig=  2.00983e-09
tplh                =  4.89613e-10 targ=  2.25191e-08 trig=  2.20295e-08
i_vdd_avg           =  -4.03525e-06 from=  5.00000e-09 to=  1.10000e-07
power_avg_uw        =  6.94216e+00


Total analysis time (seconds) = 0.327335

Total elapsed time (seconds) = 0.409 

Total DRAM available = 16384.000 MB.
DRAM currently available =   93.000 MB.
Maximum ngspice program size =   13.500 MB.
Current ngspice program size =   13.203 MB.

