
Note: No compatibility mode selected!


Circuit: INV seed characterization sample 20110

Doing analysis at TEMP = 33.287700 and TNOM = 27.000000

Using SPARSE 1.3 as Direct Linear Solver

Initial Transient Solution
--------------------------

Node                                   Voltage
----                                   -------
vdd                                     1.8815
in                                           0
out                                     1.8815
vin#branch                                   0
vdd#branch                        -2.89199e-11

 Reference value :  5.87163e-08
No. of Data Rows : 60047

  Measurements for Transient Analysis

tphl                =  1.46623e-10 targ=  2.32328e-09 trig=  2.17666e-09
tplh                =  1.59728e-10 targ=  2.26897e-08 trig=  2.25300e-08
i_vdd_avg           =  -3.02398e-06 from=  5.00000e-09 to=  1.10002e-07
power_avg_uw        =  5.68962e+00


Total analysis time (seconds) = 0.330339

Total elapsed time (seconds) = 0.411 

Total DRAM available = 16384.000 MB.
DRAM currently available =   99.469 MB.
Maximum ngspice program size =   14.797 MB.
Current ngspice program size =   14.797 MB.

