
Note: No compatibility mode selected!


Circuit: INV seed characterization sample 20115

Doing analysis at TEMP = 75.725900 and TNOM = 27.000000

Using SPARSE 1.3 as Direct Linear Solver

Initial Transient Solution
--------------------------

Node                                   Voltage
----                                   -------
vdd                                    1.84341
in                                           0
out                                    1.84341
vin#branch                                   0
vdd#branch                        -3.83143e-12

 Reference value :  5.82189e-08
No. of Data Rows : 60044

  Measurements for Transient Analysis

tphl                =  1.59026e-10 targ=  2.38395e-09 trig=  2.22493e-09
tplh                =  2.03697e-10 targ=  2.28785e-08 trig=  2.26748e-08
i_vdd_avg           =  -1.80290e-06 from=  5.00000e-09 to=  1.10001e-07
power_avg_uw        =  3.32349e+00


Total analysis time (seconds) = 0.321656

Total elapsed time (seconds) = 0.405 

Total DRAM available = 16384.000 MB.
DRAM currently available =  101.453 MB.
Maximum ngspice program size =   13.672 MB.
Current ngspice program size =   12.828 MB.

