
Note: No compatibility mode selected!


Circuit: INV seed characterization sample 20118

Doing analysis at TEMP = 10.801200 and TNOM = 27.000000

Using SPARSE 1.3 as Direct Linear Solver

Initial Transient Solution
--------------------------

Node                                   Voltage
----                                   -------
vdd                                    1.86895
in                                           0
out                                    1.86895
vin#branch                                   0
vdd#branch                        -1.88205e-12

 Reference value :  5.08693e-08
No. of Data Rows : 60044

  Measurements for Transient Analysis

tphl                =  4.25943e-10 targ=  2.66812e-09 trig=  2.24218e-09
tplh                =  6.16878e-10 targ=  2.33434e-08 trig=  2.27265e-08
i_vdd_avg           =  -2.48710e-06 from=  5.00000e-09 to=  1.10002e-07
power_avg_uw        =  4.64826e+00


Total analysis time (seconds) = 0.352153

Total elapsed time (seconds) = 0.466 

Total DRAM available = 16384.000 MB.
DRAM currently available =  103.578 MB.
Maximum ngspice program size =   14.328 MB.
Current ngspice program size =   14.203 MB.

