
Note: No compatibility mode selected!


Circuit: NAND2 seed characterization sample 20123

Doing analysis at TEMP = 44.427300 and TNOM = 27.000000

Using SPARSE 1.3 as Direct Linear Solver

Initial Transient Solution
--------------------------

Node                                   Voltage
----                                   -------
vdd                                    1.75442
in                                           0
out                                    1.75442
nmid                                 0.0480789
vin#branch                                   0
vdd#branch                        -2.58947e-12

 Reference value :  3.70051e-08
 Reference value :  9.67551e-08
No. of Data Rows : 60044

  Measurements for Transient Analysis

tphl                =  1.50641e-10 targ=  2.19267e-09 trig=  2.04203e-09
tplh                =  6.59861e-11 targ=  2.21921e-08 trig=  2.21261e-08
i_vdd_avg           =  -2.82486e-06 from=  5.00000e-09 to=  1.10001e-07
power_avg_uw        =  4.95598e+00


Total analysis time (seconds) = 0.504791

Total elapsed time (seconds) = 0.589 

Total DRAM available = 16384.000 MB.
DRAM currently available =  106.359 MB.
Maximum ngspice program size =   13.922 MB.
Current ngspice program size =   13.922 MB.

