
Note: No compatibility mode selected!


Circuit: NAND2 seed characterization sample 20125

Doing analysis at TEMP = 88.103500 and TNOM = 27.000000

Using SPARSE 1.3 as Direct Linear Solver

Initial Transient Solution
--------------------------

Node                                   Voltage
----                                   -------
vdd                                    1.89379
in                                           0
out                                    1.89379
nmid                                 0.0630936
vin#branch                                   0
vdd#branch                        -8.35563e-11

 Reference value :  3.58343e-08
 Reference value :  9.37257e-08
No. of Data Rows : 60041

  Measurements for Transient Analysis

tphl                =  3.10038e-10 targ=  2.37837e-09 trig=  2.06833e-09
tplh                =  1.00756e-10 targ=  2.23057e-08 trig=  2.22050e-08
i_vdd_avg           =  -4.94835e-06 from=  5.00000e-09 to=  1.10000e-07
power_avg_uw        =  9.37114e+00


Total analysis time (seconds) = 0.521655

Total elapsed time (seconds) = 0.610 

Total DRAM available = 16384.000 MB.
DRAM currently available =  104.797 MB.
Maximum ngspice program size =   13.219 MB.
Current ngspice program size =   13.062 MB.

