
Note: No compatibility mode selected!


Circuit: NAND2 seed characterization sample 20126

Doing analysis at TEMP = -4.355110 and TNOM = 27.000000

Using SPARSE 1.3 as Direct Linear Solver

Initial Transient Solution
--------------------------

Node                                   Voltage
----                                   -------
vdd                                     1.8255
in                                           0
out                                     1.8255
nmid                                 0.0091105
vin#branch                                   0
vdd#branch                        -1.86242e-12

 Reference value :  3.72382e-08
 Reference value :  9.71126e-08
No. of Data Rows : 60044

  Measurements for Transient Analysis

tphl                =  3.24231e-10 targ=  2.51204e-09 trig=  2.18781e-09
tplh                =  1.68924e-10 targ=  2.27323e-08 trig=  2.25634e-08
i_vdd_avg           =  -4.49939e-06 from=  5.00000e-09 to=  1.10000e-07
power_avg_uw        =  8.21363e+00


Total analysis time (seconds) = 0.503171

Total elapsed time (seconds) = 0.586 

Total DRAM available = 16384.000 MB.
DRAM currently available =  101.656 MB.
Maximum ngspice program size =   13.469 MB.
Current ngspice program size =   13.469 MB.

