
Note: No compatibility mode selected!


Circuit: NAND2 seed characterization sample 20127

Doing analysis at TEMP = -5.028710 and TNOM = 27.000000

Using SPARSE 1.3 as Direct Linear Solver

Initial Transient Solution
--------------------------

Node                                   Voltage
----                                   -------
vdd                                    1.88485
in                                           0
out                                    1.88485
nmid                               0.000301691
vin#branch                                   0
vdd#branch                        -1.89571e-12

 Reference value :  3.65553e-08
 Reference value :  9.61381e-08
No. of Data Rows : 60047

  Measurements for Transient Analysis

tphl                =  1.07911e-09 targ=  3.26368e-09 trig=  2.18457e-09
tplh                =  4.76790e-10 targ=  2.30305e-08 trig=  2.25537e-08
i_vdd_avg           =  -4.24502e-06 from=  5.00000e-09 to=  1.10001e-07
power_avg_uw        =  8.00123e+00


Total analysis time (seconds) = 0.506163

Total elapsed time (seconds) = 0.592 

Total DRAM available = 16384.000 MB.
DRAM currently available =  111.375 MB.
Maximum ngspice program size =   13.672 MB.
Current ngspice program size =   13.609 MB.

