
Note: No compatibility mode selected!


Circuit: NAND2 seed characterization sample 20124

Doing analysis at TEMP = -3.836850 and TNOM = 27.000000

Using SPARSE 1.3 as Direct Linear Solver

Initial Transient Solution
--------------------------

Node                                   Voltage
----                                   -------
vdd                                    1.96143
in                                           0
out                                    1.96143
nmid                               0.000468781
vin#branch                                   0
vdd#branch                        -1.97277e-12

 Reference value :  3.69783e-08
 Reference value :  9.66965e-08
No. of Data Rows : 60044

  Measurements for Transient Analysis

tphl                =  1.69339e-10 targ=  2.18120e-09 trig=  2.01186e-09
tplh                =  5.34682e-11 targ=  2.20890e-08 trig=  2.20356e-08
i_vdd_avg           =  -1.71276e-06 from=  5.00000e-09 to=  1.10000e-07
power_avg_uw        =  3.35945e+00


Total analysis time (seconds) = 0.505735

Total elapsed time (seconds) = 0.608 

Total DRAM available = 16384.000 MB.
DRAM currently available =  100.109 MB.
Maximum ngspice program size =   14.609 MB.
Current ngspice program size =   14.469 MB.

