
Note: No compatibility mode selected!


Circuit: NAND2 seed characterization sample 20121

Doing analysis at TEMP = 68.121400 and TNOM = 27.000000

Using SPARSE 1.3 as Direct Linear Solver

Initial Transient Solution
--------------------------

Node                                   Voltage
----                                   -------
vdd                                     1.8594
in                                           0
out                                     1.8594
nmid                                 0.0463372
vin#branch                                   0
vdd#branch                        -2.27782e-12

 Reference value :  3.69883e-08
 Reference value :  9.69257e-08
No. of Data Rows : 60041

  Measurements for Transient Analysis

tphl                =  3.05547e-10 targ=  2.51288e-09 trig=  2.20734e-09
tplh                =  1.87077e-10 targ=  2.28091e-08 trig=  2.26220e-08
i_vdd_avg           =  -3.30256e-06 from=  5.00000e-09 to=  1.10000e-07
power_avg_uw        =  6.14078e+00


Total analysis time (seconds) = 0.505168

Total elapsed time (seconds) = 0.591 

Total DRAM available = 16384.000 MB.
DRAM currently available =   96.656 MB.
Maximum ngspice program size =   14.281 MB.
Current ngspice program size =   14.281 MB.

