
Note: No compatibility mode selected!


Circuit: NAND2 seed characterization sample 20137

Doing analysis at TEMP = 80.319400 and TNOM = 27.000000

Using SPARSE 1.3 as Direct Linear Solver

Initial Transient Solution
--------------------------

Node                                   Voltage
----                                   -------
vdd                                    1.62639
in                                           0
out                                    1.62639
nmid                                 0.0557651
vin#branch                                   0
vdd#branch                        -8.36055e-11

 Reference value :  3.67482e-08
 Reference value :  9.56398e-08
No. of Data Rows : 60056

  Measurements for Transient Analysis

tphl                =  2.56016e-10 targ=  2.26318e-09 trig=  2.00717e-09
tplh                =  7.31867e-11 targ=  2.20947e-08 trig=  2.20215e-08
i_vdd_avg           =  -5.86869e-06 from=  5.00000e-09 to=  1.10000e-07
power_avg_uw        =  9.54478e+00


Total analysis time (seconds) = 0.519771

Total elapsed time (seconds) = 0.603 

Total DRAM available = 16384.000 MB.
DRAM currently available =   85.891 MB.
Maximum ngspice program size =   14.031 MB.
Current ngspice program size =   14.031 MB.

