
Note: No compatibility mode selected!


Circuit: NAND2 seed characterization sample 20135

Doing analysis at TEMP = -10.708900 and TNOM = 27.000000

Using SPARSE 1.3 as Direct Linear Solver

Initial Transient Solution
--------------------------

Node                                   Voltage
----                                   -------
vdd                                    1.78392
in                                           0
out                                    1.78392
nmid                                0.00577531
vin#branch                                   0
vdd#branch                        -1.81082e-12

 Reference value :  3.71523e-08
 Reference value :  9.69807e-08
No. of Data Rows : 60044

  Measurements for Transient Analysis

tphl                =  1.51544e-10 targ=  2.22938e-09 trig=  2.07783e-09
tplh                =  8.07237e-11 targ=  2.23142e-08 trig=  2.22335e-08
i_vdd_avg           =  -2.47803e-06 from=  5.00000e-09 to=  1.10000e-07
power_avg_uw        =  4.42060e+00


Total analysis time (seconds) = 0.504835

Total elapsed time (seconds) = 0.588 

Total DRAM available = 16384.000 MB.
DRAM currently available =  101.812 MB.
Maximum ngspice program size =   13.406 MB.
Current ngspice program size =   13.219 MB.

