
Note: No compatibility mode selected!


Circuit: NAND2 seed characterization sample 20138

Doing analysis at TEMP = 32.205700 and TNOM = 27.000000

Using SPARSE 1.3 as Direct Linear Solver

Initial Transient Solution
--------------------------

Node                                   Voltage
----                                   -------
vdd                                    1.86704
in                                           0
out                                    1.86704
nmid                                 0.0348312
vin#branch                                   0
vdd#branch                        -2.05496e-12

 Reference value :  3.80134e-08
 Reference value :  9.77072e-08
No. of Data Rows : 60044

  Measurements for Transient Analysis

tphl                =  2.63306e-10 targ=  2.28042e-09 trig=  2.01711e-09
tplh                =  9.39063e-11 targ=  2.21452e-08 trig=  2.20513e-08
i_vdd_avg           =  -3.57744e-06 from=  5.00000e-09 to=  1.10001e-07
power_avg_uw        =  6.67921e+00


Total analysis time (seconds) = 0.505496

Total elapsed time (seconds) = 0.586 

Total DRAM available = 16384.000 MB.
DRAM currently available =   74.094 MB.
Maximum ngspice program size =   13.922 MB.
Current ngspice program size =   13.922 MB.

