
Note: No compatibility mode selected!


Circuit: NAND2 seed characterization sample 20142

Doing analysis at TEMP = -9.039650 and TNOM = 27.000000

Using SPARSE 1.3 as Direct Linear Solver

Initial Transient Solution
--------------------------

Node                                   Voltage
----                                   -------
vdd                                    1.90431
in                                           0
out                                    1.90431
nmid                               0.000238986
vin#branch                                   0
vdd#branch                          -1.915e-12

 Reference value :  3.79535e-08
 Reference value :  9.74062e-08
No. of Data Rows : 60047

  Measurements for Transient Analysis

tphl                =  4.64628e-10 targ=  2.66825e-09 trig=  2.20362e-09
tplh                =  2.20619e-10 targ=  2.28315e-08 trig=  2.26109e-08
i_vdd_avg           =  -3.70582e-06 from=  5.00000e-09 to=  1.10001e-07
power_avg_uw        =  7.05703e+00


Total analysis time (seconds) = 0.507457

Total elapsed time (seconds) = 0.588 

Total DRAM available = 16384.000 MB.
DRAM currently available =   99.422 MB.
Maximum ngspice program size =   12.953 MB.
Current ngspice program size =   12.953 MB.

