
Note: No compatibility mode selected!


Circuit: NAND2 seed characterization sample 20147

Doing analysis at TEMP = 48.192800 and TNOM = 27.000000

Using SPARSE 1.3 as Direct Linear Solver

Initial Transient Solution
--------------------------

Node                                   Voltage
----                                   -------
vdd                                    1.68247
in                                           0
out                                    1.68247
nmid                                  0.045881
vin#branch                                   0
vdd#branch                        -2.16774e-12

 Reference value :  3.65903e-08
 Reference value :  9.60296e-08
No. of Data Rows : 60041

  Measurements for Transient Analysis

tphl                =  2.97402e-10 targ=  2.39172e-09 trig=  2.09431e-09
tplh                =  1.66394e-10 targ=  2.24493e-08 trig=  2.22829e-08
i_vdd_avg           =  -2.24658e-06 from=  5.00000e-09 to=  1.10000e-07
power_avg_uw        =  3.77981e+00


Total analysis time (seconds) = 0.508263

Total elapsed time (seconds) = 0.592 

Total DRAM available = 16384.000 MB.
DRAM currently available =  113.859 MB.
Maximum ngspice program size =   14.328 MB.
Current ngspice program size =   14.328 MB.

