
Note: No compatibility mode selected!


Circuit: NAND2 seed characterization sample 20140

Doing analysis at TEMP = 42.032400 and TNOM = 27.000000

Using SPARSE 1.3 as Direct Linear Solver

Initial Transient Solution
--------------------------

Node                                   Voltage
----                                   -------
vdd                                    1.75144
in                                           0
out                                    1.75144
nmid                                 0.0567371
vin#branch                                   0
vdd#branch                        -7.99828e-12

 Reference value :  3.66877e-08
 Reference value :  9.58133e-08
No. of Data Rows : 60044

  Measurements for Transient Analysis

tphl                =  2.24189e-10 targ=  2.34836e-09 trig=  2.12417e-09
tplh                =  1.07450e-10 targ=  2.24800e-08 trig=  2.23725e-08
i_vdd_avg           =  -4.01359e-06 from=  5.00000e-09 to=  1.10002e-07
power_avg_uw        =  7.02956e+00


Total analysis time (seconds) = 0.51838

Total elapsed time (seconds) = 0.602 

Total DRAM available = 16384.000 MB.
DRAM currently available =   97.516 MB.
Maximum ngspice program size =   13.984 MB.
Current ngspice program size =   13.984 MB.

