
Note: No compatibility mode selected!


Circuit: NAND2 seed characterization sample 20141

Doing analysis at TEMP = 7.924020 and TNOM = 27.000000

Using SPARSE 1.3 as Direct Linear Solver

Initial Transient Solution
--------------------------

Node                                   Voltage
----                                   -------
vdd                                    1.73436
in                                           0
out                                    1.73436
nmid                                 0.0109279
vin#branch                                   0
vdd#branch                        -1.77682e-12

 Reference value :  3.45949e-08
 Reference value :  9.38040e-08
No. of Data Rows : 60041

  Measurements for Transient Analysis

tphl                =  3.81044e-10 targ=  2.52952e-09 trig=  2.14848e-09
tplh                =  1.73912e-10 targ=  2.26193e-08 trig=  2.24454e-08
i_vdd_avg           =  -2.78653e-06 from=  5.00000e-09 to=  1.10001e-07
power_avg_uw        =  4.83284e+00


Total analysis time (seconds) = 0.516162

Total elapsed time (seconds) = 0.604 

Total DRAM available = 16384.000 MB.
DRAM currently available =  103.875 MB.
Maximum ngspice program size =   14.891 MB.
Current ngspice program size =   14.891 MB.

