
Note: No compatibility mode selected!


Circuit: NAND2 seed characterization sample 20148

Doing analysis at TEMP = 3.637000 and TNOM = 27.000000

Using SPARSE 1.3 as Direct Linear Solver

Initial Transient Solution
--------------------------

Node                                   Voltage
----                                   -------
vdd                                    1.72859
in                                           0
out                                    1.72859
nmid                                0.00185942
vin#branch                                   0
vdd#branch                        -1.74386e-12

 Reference value :  3.66057e-08
 Reference value :  9.63334e-08
No. of Data Rows : 60044

  Measurements for Transient Analysis

tphl                =  4.92612e-10 targ=  2.64679e-09 trig=  2.15418e-09
tplh                =  2.66638e-10 targ=  2.27292e-08 trig=  2.24625e-08
i_vdd_avg           =  -5.42912e-06 from=  5.00000e-09 to=  1.10002e-07
power_avg_uw        =  9.38472e+00


Total analysis time (seconds) = 0.504881

Total elapsed time (seconds) = 0.593 

Total DRAM available = 16384.000 MB.
DRAM currently available =   87.266 MB.
Maximum ngspice program size =   13.844 MB.
Current ngspice program size =   13.078 MB.

