
Note: No compatibility mode selected!


Circuit: NAND2 seed characterization sample 20154

Doing analysis at TEMP = 46.649300 and TNOM = 27.000000

Using SPARSE 1.3 as Direct Linear Solver

Initial Transient Solution
--------------------------

Node                                   Voltage
----                                   -------
vdd                                    1.77255
in                                           0
out                                    1.77255
nmid                                 0.0149645
vin#branch                                   0
vdd#branch                         -1.8318e-12

 Reference value :  3.72788e-08
 Reference value :  9.66659e-08
No. of Data Rows : 60041

  Measurements for Transient Analysis

tphl                =  6.66270e-10 targ=  2.90472e-09 trig=  2.23845e-09
tplh                =  3.52267e-10 targ=  2.30676e-08 trig=  2.27154e-08
i_vdd_avg           =  -3.44405e-06 from=  5.00000e-09 to=  1.10001e-07
power_avg_uw        =  6.10475e+00


Total analysis time (seconds) = 0.510271

Total elapsed time (seconds) = 0.592 

Total DRAM available = 16384.000 MB.
DRAM currently available =   90.359 MB.
Maximum ngspice program size =   13.844 MB.
Current ngspice program size =   13.844 MB.

