
Note: No compatibility mode selected!


Circuit: NAND2 seed characterization sample 20158

Doing analysis at TEMP = 45.286000 and TNOM = 27.000000

Using SPARSE 1.3 as Direct Linear Solver

Initial Transient Solution
--------------------------

Node                                   Voltage
----                                   -------
vdd                                    1.71952
in                                           0
out                                    1.71952
nmid                                 0.0517491
vin#branch                                   0
vdd#branch                        -1.02372e-11

 Reference value :  3.42167e-08
 Reference value :  8.74229e-08
No. of Data Rows : 60044

  Measurements for Transient Analysis

tphl                =  1.47285e-10 targ=  2.22822e-09 trig=  2.08093e-09
tplh                =  7.34610e-11 targ=  2.23163e-08 trig=  2.22428e-08
i_vdd_avg           =  -2.93468e-06 from=  5.00000e-09 to=  1.10001e-07
power_avg_uw        =  5.04624e+00


Total analysis time (seconds) = 0.541441

Total elapsed time (seconds) = 0.654 

Total DRAM available = 16384.000 MB.
DRAM currently available =   76.797 MB.
Maximum ngspice program size =   14.047 MB.
Current ngspice program size =   14.047 MB.

