
Note: No compatibility mode selected!


Circuit: NAND2 seed characterization sample 20150

Doing analysis at TEMP = 95.023500 and TNOM = 27.000000

Using SPARSE 1.3 as Direct Linear Solver

Initial Transient Solution
--------------------------

Node                                   Voltage
----                                   -------
vdd                                    1.76723
in                                           0
out                                    1.76723
nmid                                 0.0484823
vin#branch                                   0
vdd#branch                        -2.14739e-11

 Reference value :  3.67216e-08
 Reference value :  9.64823e-08
No. of Data Rows : 60047

  Measurements for Transient Analysis

tphl                =  1.41655e-10 targ=  2.20831e-09 trig=  2.06665e-09
tplh                =  7.38162e-11 targ=  2.22738e-08 trig=  2.22000e-08
i_vdd_avg           =  -2.20571e-06 from=  5.00000e-09 to=  1.10002e-07
power_avg_uw        =  3.89800e+00


Total analysis time (seconds) = 0.506572

Total elapsed time (seconds) = 0.592 

Total DRAM available = 16384.000 MB.
DRAM currently available =   92.250 MB.
Maximum ngspice program size =   14.484 MB.
Current ngspice program size =   14.484 MB.

