
Note: No compatibility mode selected!


Circuit: NAND2 seed characterization sample 20155

Doing analysis at TEMP = 28.251500 and TNOM = 27.000000

Using SPARSE 1.3 as Direct Linear Solver

Initial Transient Solution
--------------------------

Node                                   Voltage
----                                   -------
vdd                                    1.74817
in                                           0
out                                    1.74817
nmid                                 0.0485326
vin#branch                                   0
vdd#branch                        -2.91153e-12

 Reference value :  3.66508e-08
 Reference value :  9.65669e-08
No. of Data Rows : 60044

  Measurements for Transient Analysis

tphl                =  1.61975e-10 targ=  2.21291e-09 trig=  2.05094e-09
tplh                =  8.44539e-11 targ=  2.22373e-08 trig=  2.21528e-08
i_vdd_avg           =  -1.85149e-06 from=  5.00000e-09 to=  1.10001e-07
power_avg_uw        =  3.23671e+00


Total analysis time (seconds) = 0.504418

Total elapsed time (seconds) = 0.590 

Total DRAM available = 16384.000 MB.
DRAM currently available =  100.719 MB.
Maximum ngspice program size =   14.422 MB.
Current ngspice program size =   14.422 MB.

