
Note: No compatibility mode selected!


Circuit: NAND2 seed characterization sample 20166

Doing analysis at TEMP = 53.580400 and TNOM = 27.000000

Using SPARSE 1.3 as Direct Linear Solver

Initial Transient Solution
--------------------------

Node                                   Voltage
----                                   -------
vdd                                     1.7274
in                                           0
out                                     1.7274
nmid                                 0.0290543
vin#branch                                   0
vdd#branch                        -1.84582e-12

 Reference value :  3.29774e-08
 Reference value :  9.10042e-08
No. of Data Rows : 60047

  Measurements for Transient Analysis

tphl                =  4.34963e-10 targ=  2.57157e-09 trig=  2.13661e-09
tplh                =  2.18678e-10 targ=  2.26285e-08 trig=  2.24098e-08
i_vdd_avg           =  -3.37803e-06 from=  5.00000e-09 to=  1.10001e-07
power_avg_uw        =  5.83521e+00


Total analysis time (seconds) = 0.546345

Total elapsed time (seconds) = 0.653 

Total DRAM available = 16384.000 MB.
DRAM currently available =  156.203 MB.
Maximum ngspice program size =   14.781 MB.
Current ngspice program size =   14.781 MB.

