
Note: No compatibility mode selected!


Circuit: NAND2 seed characterization sample 20163

Doing analysis at TEMP = 91.447000 and TNOM = 27.000000

Using SPARSE 1.3 as Direct Linear Solver

Initial Transient Solution
--------------------------

Node                                   Voltage
----                                   -------
vdd                                    1.69295
in                                           0
out                                    1.69295
nmid                                 0.0381946
vin#branch                                   0
vdd#branch                         -3.1007e-12

 Reference value :  1.15821e-08
 Reference value :  4.48661e-08
 Reference value :  7.76071e-08
 Reference value :  1.11645e-07
No. of Data Rows : 60047

  Measurements for Transient Analysis

tphl                =  2.03254e-10 targ=  2.38878e-09 trig=  2.18553e-09
tplh                =  1.38457e-10 targ=  2.26950e-08 trig=  2.25566e-08
i_vdd_avg           =  -1.21749e-06 from=  5.00000e-09 to=  1.10001e-07
power_avg_uw        =  2.06114e+00


Total analysis time (seconds) = 2.25364

Total elapsed time (seconds) = 2.663 

Total DRAM available = 16384.000 MB.
DRAM currently available =  202.156 MB.
Maximum ngspice program size =   18.859 MB.
Current ngspice program size =    7.984 MB.

