
Note: No compatibility mode selected!


Circuit: NAND2 seed characterization sample 20169

Doing analysis at TEMP = 1.079430 and TNOM = 27.000000

Using SPARSE 1.3 as Direct Linear Solver

Initial Transient Solution
--------------------------

Node                                   Voltage
----                                   -------
vdd                                    1.86907
in                                           0
out                                    1.86907
nmid                                0.00121218
vin#branch                                   0
vdd#branch                         -1.8825e-12

 Reference value :  2.76821e-08
 Reference value :  8.71246e-08
No. of Data Rows : 60044

  Measurements for Transient Analysis

tphl                =  1.48129e-10 targ=  2.23791e-09 trig=  2.08978e-09
tplh                =  8.39220e-11 targ=  2.23533e-08 trig=  2.22693e-08
i_vdd_avg           =  -1.08594e-06 from=  5.00000e-09 to=  1.10000e-07
power_avg_uw        =  2.02970e+00


Total analysis time (seconds) = 0.523569

Total elapsed time (seconds) = 0.632 

Total DRAM available = 16384.000 MB.
DRAM currently available =  178.703 MB.
Maximum ngspice program size =   14.812 MB.
Current ngspice program size =   14.812 MB.

