
Note: No compatibility mode selected!


Circuit: NAND2 seed characterization sample 20177

Doing analysis at TEMP = 14.029500 and TNOM = 27.000000

Using SPARSE 1.3 as Direct Linear Solver

Initial Transient Solution
--------------------------

Node                                   Voltage
----                                   -------
vdd                                    1.68667
in                                           0
out                                    1.68667
nmid                                0.00998086
vin#branch                                   0
vdd#branch                        -1.72752e-12

 Reference value :  1.83134e-08
 Reference value :  5.71114e-08
 Reference value :  9.32894e-08
No. of Data Rows : 60044

  Measurements for Transient Analysis

tphl                =  7.11061e-10 targ=  2.79127e-09 trig=  2.08021e-09
tplh                =  3.31599e-10 targ=  2.25722e-08 trig=  2.22406e-08
i_vdd_avg           =  -2.74105e-06 from=  5.00000e-09 to=  1.10002e-07
power_avg_uw        =  4.62325e+00


Total analysis time (seconds) = 0.99251

Total elapsed time (seconds) = 1.117 

Total DRAM available = 16384.000 MB.
DRAM currently available =  100.375 MB.
Maximum ngspice program size =   15.000 MB.
Current ngspice program size =   11.516 MB.

