
Note: No compatibility mode selected!


Circuit: NAND2 seed characterization sample 20170

Doing analysis at TEMP = 59.902300 and TNOM = 27.000000

Using SPARSE 1.3 as Direct Linear Solver

Initial Transient Solution
--------------------------

Node                                   Voltage
----                                   -------
vdd                                    1.76518
in                                           0
out                                    1.76518
nmid                                 0.0648709
vin#branch                                   0
vdd#branch                        -5.26342e-12

 Reference value :  3.64431e-08
 Reference value :  9.54490e-08
No. of Data Rows : 60044

  Measurements for Transient Analysis

tphl                =  1.82920e-10 targ=  2.39394e-09 trig=  2.21102e-09
tplh                =  1.06518e-10 targ=  2.27396e-08 trig=  2.26330e-08
i_vdd_avg           =  -6.96599e-07 from=  5.00000e-09 to=  1.10001e-07
power_avg_uw        =  1.22962e+00


Total analysis time (seconds) = 0.535957

Total elapsed time (seconds) = 0.620 

Total DRAM available = 16384.000 MB.
DRAM currently available =  192.922 MB.
Maximum ngspice program size =   13.672 MB.
Current ngspice program size =   13.641 MB.

