
Note: No compatibility mode selected!


Circuit: NAND2 seed characterization sample 20185

Doing analysis at TEMP = 62.857800 and TNOM = 27.000000

Using SPARSE 1.3 as Direct Linear Solver

Initial Transient Solution
--------------------------

Node                                   Voltage
----                                   -------
vdd                                    1.80161
in                                           0
out                                    1.80161
nmid                                 0.0667838
vin#branch                                   0
vdd#branch                        -4.79209e-12

 Reference value :  3.27172e-08
 Reference value :  9.20481e-08
No. of Data Rows : 60047

  Measurements for Transient Analysis

tphl                =  6.85605e-10 targ=  2.73416e-09 trig=  2.04855e-09
tplh                =  2.26043e-10 targ=  2.23717e-08 trig=  2.21457e-08
i_vdd_avg           =  -3.16938e-06 from=  5.00000e-09 to=  1.10001e-07
power_avg_uw        =  5.70998e+00


Total analysis time (seconds) = 0.511168

Total elapsed time (seconds) = 0.609 

Total DRAM available = 16384.000 MB.
DRAM currently available =  104.375 MB.
Maximum ngspice program size =   14.406 MB.
Current ngspice program size =   14.406 MB.

