
Note: No compatibility mode selected!


Circuit: NAND2 seed characterization sample 20187

Doing analysis at TEMP = 22.143900 and TNOM = 27.000000

Using SPARSE 1.3 as Direct Linear Solver

Initial Transient Solution
--------------------------

Node                                   Voltage
----                                   -------
vdd                                    1.65746
in                                           0
out                                    1.65746
nmid                                0.00927976
vin#branch                                   0
vdd#branch                        -1.69323e-12

 Reference value :  3.65556e-08
 Reference value :  9.63563e-08
No. of Data Rows : 60047

  Measurements for Transient Analysis

tphl                =  4.83701e-10 targ=  2.51734e-09 trig=  2.03364e-09
tplh                =  1.91964e-10 targ=  2.22929e-08 trig=  2.21009e-08
i_vdd_avg           =  -5.49166e-06 from=  5.00000e-09 to=  1.10002e-07
power_avg_uw        =  9.10220e+00


Total analysis time (seconds) = 0.51119

Total elapsed time (seconds) = 0.594 

Total DRAM available = 16384.000 MB.
DRAM currently available =   86.750 MB.
Maximum ngspice program size =   13.094 MB.
Current ngspice program size =   12.688 MB.

