
Note: No compatibility mode selected!


Circuit: NAND2 seed characterization sample 20186

Doing analysis at TEMP = 8.986930 and TNOM = 27.000000

Using SPARSE 1.3 as Direct Linear Solver

Initial Transient Solution
--------------------------

Node                                   Voltage
----                                   -------
vdd                                    1.93345
in                                           0
out                                    1.93345
nmid                                 0.0247724
vin#branch                                   0
vdd#branch                        -2.02521e-12

 Reference value :  3.11409e-08
 Reference value :  8.66029e-08
No. of Data Rows : 60044

  Measurements for Transient Analysis

tphl                =  1.90244e-10 targ=  2.31822e-09 trig=  2.12797e-09
tplh                =  1.33886e-10 targ=  2.25178e-08 trig=  2.23839e-08
i_vdd_avg           =  -3.70315e-06 from=  5.00000e-09 to=  1.10001e-07
power_avg_uw        =  7.15985e+00


Total analysis time (seconds) = 0.570752

Total elapsed time (seconds) = 0.654 

Total DRAM available = 16384.000 MB.
DRAM currently available =  103.625 MB.
Maximum ngspice program size =   14.000 MB.
Current ngspice program size =   13.234 MB.

