
Note: No compatibility mode selected!


Circuit: NAND2 seed characterization sample 20183

Doing analysis at TEMP = 67.822300 and TNOM = 27.000000

Using SPARSE 1.3 as Direct Linear Solver

Initial Transient Solution
--------------------------

Node                                   Voltage
----                                   -------
vdd                                    1.66339
in                                           0
out                                    1.66339
nmid                                 0.0357847
vin#branch                                   0
vdd#branch                        -2.47099e-12

 Reference value :  3.60104e-08
 Reference value :  9.53797e-08
No. of Data Rows : 60041

  Measurements for Transient Analysis

tphl                =  1.62859e-10 targ=  2.31422e-09 trig=  2.15136e-09
tplh                =  9.11648e-11 targ=  2.25452e-08 trig=  2.24541e-08
i_vdd_avg           =  -2.94129e-07 from=  5.00000e-09 to=  1.10000e-07
power_avg_uw        =  4.89251e-01


Total analysis time (seconds) = 0.513356

Total elapsed time (seconds) = 0.604 

Total DRAM available = 16384.000 MB.
DRAM currently available =  110.688 MB.
Maximum ngspice program size =   14.516 MB.
Current ngspice program size =   14.516 MB.

