
Note: No compatibility mode selected!


Circuit: NAND2 seed characterization sample 20188

Doing analysis at TEMP = 54.155000 and TNOM = 27.000000

Using SPARSE 1.3 as Direct Linear Solver

Initial Transient Solution
--------------------------

Node                                   Voltage
----                                   -------
vdd                                    1.70079
in                                           0
out                                    1.70079
nmid                                 0.0341364
vin#branch                                   0
vdd#branch                        -4.73588e-12

 Reference value :  3.60937e-08
 Reference value :  9.51384e-08
No. of Data Rows : 60047

  Measurements for Transient Analysis

tphl                =  1.06323e-09 targ=  3.14692e-09 trig=  2.08369e-09
tplh                =  3.38592e-10 targ=  2.25897e-08 trig=  2.22511e-08
i_vdd_avg           =  -4.79407e-06 from=  5.00000e-09 to=  1.10002e-07
power_avg_uw        =  8.15370e+00


Total analysis time (seconds) = 0.548526

Total elapsed time (seconds) = 0.638 

Total DRAM available = 16384.000 MB.
DRAM currently available =   98.656 MB.
Maximum ngspice program size =   14.516 MB.
Current ngspice program size =   14.516 MB.

