
Note: No compatibility mode selected!


Circuit: NAND2 seed characterization sample 20181

Doing analysis at TEMP = 37.037000 and TNOM = 27.000000

Using SPARSE 1.3 as Direct Linear Solver

Initial Transient Solution
--------------------------

Node                                   Voltage
----                                   -------
vdd                                    1.87827
in                                           0
out                                    1.87827
nmid                                 0.0202927
vin#branch                                   0
vdd#branch                        -1.95399e-12

 Reference value :  3.63585e-08
 Reference value :  9.57768e-08
No. of Data Rows : 60044

  Measurements for Transient Analysis

tphl                =  2.02532e-10 targ=  2.43241e-09 trig=  2.22988e-09
tplh                =  1.48050e-10 targ=  2.28377e-08 trig=  2.26896e-08
i_vdd_avg           =  -1.50955e-06 from=  5.00000e-09 to=  1.10001e-07
power_avg_uw        =  2.83534e+00


Total analysis time (seconds) = 0.510262

Total elapsed time (seconds) = 0.596 

Total DRAM available = 16384.000 MB.
DRAM currently available =  135.922 MB.
Maximum ngspice program size =   13.750 MB.
Current ngspice program size =   13.750 MB.

