
Note: No compatibility mode selected!


Circuit: NAND2 seed characterization sample 20189

Doing analysis at TEMP = 63.429900 and TNOM = 27.000000

Using SPARSE 1.3 as Direct Linear Solver

Initial Transient Solution
--------------------------

Node                                   Voltage
----                                   -------
vdd                                    1.85689
in                                           0
out                                    1.85689
nmid                                 0.0473724
vin#branch                                   0
vdd#branch                        -2.66242e-12

 Reference value :  3.66547e-08
 Reference value :  9.44629e-08
No. of Data Rows : 60044

  Measurements for Transient Analysis

tphl                =  3.60542e-10 targ=  2.40147e-09 trig=  2.04093e-09
tplh                =  1.18449e-10 targ=  2.22412e-08 trig=  2.21228e-08
i_vdd_avg           =  -2.28043e-06 from=  5.00000e-09 to=  1.10001e-07
power_avg_uw        =  4.23450e+00


Total analysis time (seconds) = 0.529068

Total elapsed time (seconds) = 0.615 

Total DRAM available = 16384.000 MB.
DRAM currently available =   91.766 MB.
Maximum ngspice program size =   14.422 MB.
Current ngspice program size =   14.422 MB.

