
Note: No compatibility mode selected!


Circuit: NAND2 seed characterization sample 20199

Doing analysis at TEMP = 98.363500 and TNOM = 27.000000

Using SPARSE 1.3 as Direct Linear Solver

Initial Transient Solution
--------------------------

Node                                   Voltage
----                                   -------
vdd                                     1.6834
in                                           0
out                                     1.6834
nmid                                 0.0520859
vin#branch                                   0
vdd#branch                        -3.27087e-12

 Reference value :  2.37310e-08
 Reference value :  6.75950e-08
 Reference value :  1.15073e-07
No. of Data Rows : 60047

  Measurements for Transient Analysis

tphl                =  4.30337e-10 targ=  2.53984e-09 trig=  2.10950e-09
tplh                =  1.87469e-10 targ=  2.25160e-08 trig=  2.23285e-08
i_vdd_avg           =  -4.06707e-06 from=  5.00000e-09 to=  1.10001e-07
power_avg_uw        =  6.84651e+00


Total analysis time (seconds) = 0.676902

Total elapsed time (seconds) = 0.803 

Total DRAM available = 16384.000 MB.
DRAM currently available =  117.250 MB.
Maximum ngspice program size =   13.875 MB.
Current ngspice program size =   13.875 MB.

