
Note: No compatibility mode selected!


Circuit: NAND2 seed characterization sample 20198

Doing analysis at TEMP = 85.885600 and TNOM = 27.000000

Using SPARSE 1.3 as Direct Linear Solver

Initial Transient Solution
--------------------------

Node                                   Voltage
----                                   -------
vdd                                    1.70528
in                                           0
out                                    1.70528
nmid                                 0.0636937
vin#branch                                   0
vdd#branch                        -7.16599e-12

 Reference value :  2.12118e-08
 Reference value :  5.95798e-08
 Reference value :  9.80798e-08
No. of Data Rows : 60041

  Measurements for Transient Analysis

tphl                =  4.53782e-10 targ=  2.46320e-09 trig=  2.00941e-09
tplh                =  1.86321e-10 targ=  2.22146e-08 trig=  2.20282e-08
i_vdd_avg           =  -5.74667e-06 from=  5.00000e-09 to=  1.10001e-07
power_avg_uw        =  9.79969e+00


Total analysis time (seconds) = 0.826624

Total elapsed time (seconds) = 0.949 

Total DRAM available = 16384.000 MB.
DRAM currently available =  100.031 MB.
Maximum ngspice program size =   13.594 MB.
Current ngspice program size =    8.703 MB.

