
Note: No compatibility mode selected!


Circuit: NAND2 seed characterization sample 20193

Doing analysis at TEMP = -12.580800 and TNOM = 27.000000

Using SPARSE 1.3 as Direct Linear Solver

Initial Transient Solution
--------------------------

Node                                   Voltage
----                                   -------
vdd                                    1.67849
in                                           0
out                                    1.67849
nmid                               0.000398889
vin#branch                                   0
vdd#branch                        -1.68964e-12

 Reference value :  3.86070e-08
 Reference value :  9.01940e-08
No. of Data Rows : 60047

  Measurements for Transient Analysis

tphl                =  1.65447e-10 targ=  2.26095e-09 trig=  2.09551e-09
tplh                =  9.61971e-11 targ=  2.23827e-08 trig=  2.22865e-08
i_vdd_avg           =  -1.82617e-06 from=  5.00000e-09 to=  1.10001e-07
power_avg_uw        =  3.06520e+00


Total analysis time (seconds) = 0.63809

Total elapsed time (seconds) = 0.717 

Total DRAM available = 16384.000 MB.
DRAM currently available =   69.859 MB.
Maximum ngspice program size =   14.891 MB.
Current ngspice program size =   14.891 MB.

