
Note: No compatibility mode selected!


Circuit: NAND2 seed characterization sample 20209

Doing analysis at TEMP = 83.250600 and TNOM = 27.000000

Using SPARSE 1.3 as Direct Linear Solver

Initial Transient Solution
--------------------------

Node                                   Voltage
----                                   -------
vdd                                    1.95541
in                                           0
out                                    1.95541
nmid                                 0.0585648
vin#branch                                   0
vdd#branch                        -7.79038e-11

 Reference value :  2.05209e-08
 Reference value :  6.54628e-08
 Reference value :  1.11411e-07
No. of Data Rows : 60044

  Measurements for Transient Analysis

tphl                =  3.14532e-10 targ=  2.47649e-09 trig=  2.16196e-09
tplh                =  1.32315e-10 targ=  2.26182e-08 trig=  2.24859e-08
i_vdd_avg           =  -6.33129e-06 from=  5.00000e-09 to=  1.10001e-07
power_avg_uw        =  1.23803e+01


Total analysis time (seconds) = 0.75879

Total elapsed time (seconds) = 0.878 

Total DRAM available = 16384.000 MB.
DRAM currently available =  302.312 MB.
Maximum ngspice program size =   15.391 MB.
Current ngspice program size =   15.391 MB.

