
Note: No compatibility mode selected!


Circuit: NAND2 seed characterization sample 20202

Doing analysis at TEMP = 87.982500 and TNOM = 27.000000

Using SPARSE 1.3 as Direct Linear Solver

Initial Transient Solution
--------------------------

Node                                   Voltage
----                                   -------
vdd                                    1.96807
in                                           0
out                                    1.96807
nmid                                  0.055041
vin#branch                                   0
vdd#branch                        -2.34578e-12

 Reference value :  2.11899e-08
 Reference value :  7.35269e-08
No. of Data Rows : 60041

  Measurements for Transient Analysis

tphl                =  5.45848e-10 targ=  2.73732e-09 trig=  2.19147e-09
tplh                =  3.19802e-10 targ=  2.28942e-08 trig=  2.25744e-08
i_vdd_avg           =  -2.88338e-06 from=  5.00000e-09 to=  1.10001e-07
power_avg_uw        =  5.67469e+00


Total analysis time (seconds) = 0.602804

Total elapsed time (seconds) = 0.743 

Total DRAM available = 16384.000 MB.
DRAM currently available =   98.375 MB.
Maximum ngspice program size =   16.719 MB.
Current ngspice program size =   16.719 MB.

