
Note: No compatibility mode selected!


Circuit: NAND2 seed characterization sample 20207

Doing analysis at TEMP = 33.196200 and TNOM = 27.000000

Using SPARSE 1.3 as Direct Linear Solver

Initial Transient Solution
--------------------------

Node                                   Voltage
----                                   -------
vdd                                    1.72261
in                                           0
out                                    1.72261
nmid                                 0.0407367
vin#branch                                   0
vdd#branch                        -2.12979e-12

 Reference value :  1.85457e-08
 Reference value :  6.31583e-08
 Reference value :  1.06820e-07
No. of Data Rows : 60041

  Measurements for Transient Analysis

tphl                =  3.11708e-10 targ=  2.42304e-09 trig=  2.11133e-09
tplh                =  1.44683e-10 targ=  2.24787e-08 trig=  2.23340e-08
i_vdd_avg           =  -5.99507e-06 from=  5.00000e-09 to=  1.10000e-07
power_avg_uw        =  1.03272e+01


Total analysis time (seconds) = 0.722329

Total elapsed time (seconds) = 0.876 

Total DRAM available = 16384.000 MB.
DRAM currently available =  286.234 MB.
Maximum ngspice program size =   17.375 MB.
Current ngspice program size =   17.375 MB.

