
Note: No compatibility mode selected!


Circuit: NAND2 seed characterization sample 20200

Doing analysis at TEMP = 55.262400 and TNOM = 27.000000

Using SPARSE 1.3 as Direct Linear Solver

Initial Transient Solution
--------------------------

Node                                   Voltage
----                                   -------
vdd                                    1.73976
in                                           0
out                                    1.73976
nmid                                 0.0606609
vin#branch                                   0
vdd#branch                        -1.43677e-11

 Reference value :  3.00873e-08
 Reference value :  8.16053e-08
No. of Data Rows : 60047

  Measurements for Transient Analysis

tphl                =  1.85613e-10 targ=  2.29218e-09 trig=  2.10657e-09
tplh                =  1.12990e-10 targ=  2.24327e-08 trig=  2.23197e-08
i_vdd_avg           =  -3.36846e-06 from=  5.00000e-09 to=  1.10001e-07
power_avg_uw        =  5.86031e+00


Total analysis time (seconds) = 0.593171

Total elapsed time (seconds) = 0.690 

Total DRAM available = 16384.000 MB.
DRAM currently available =   64.672 MB.
Maximum ngspice program size =   14.344 MB.
Current ngspice program size =   14.344 MB.

