
Note: No compatibility mode selected!


Circuit: NAND2 seed characterization sample 20219

Doing analysis at TEMP = 56.878500 and TNOM = 27.000000

Using SPARSE 1.3 as Direct Linear Solver

Initial Transient Solution
--------------------------

Node                                   Voltage
----                                   -------
vdd                                    1.77947
in                                           0
out                                    1.77947
nmid                                 0.0476174
vin#branch                                   0
vdd#branch                        -3.64674e-12

 Reference value :  2.93780e-08
 Reference value :  7.92720e-08
No. of Data Rows : 60041

  Measurements for Transient Analysis

tphl                =  1.70018e-10 targ=  2.34327e-09 trig=  2.17326e-09
tplh                =  9.65242e-11 targ=  2.26163e-08 trig=  2.25198e-08
i_vdd_avg           =  -2.02725e-06 from=  5.00000e-09 to=  1.10000e-07
power_avg_uw        =  3.60743e+00


Total analysis time (seconds) = 0.635042

Total elapsed time (seconds) = 0.744 

Total DRAM available = 16384.000 MB.
DRAM currently available =  276.047 MB.
Maximum ngspice program size =   14.766 MB.
Current ngspice program size =   14.766 MB.

