
Note: No compatibility mode selected!


Circuit: NAND2 seed characterization sample 20215

Doing analysis at TEMP = -14.148000 and TNOM = 27.000000

Using SPARSE 1.3 as Direct Linear Solver

Initial Transient Solution
--------------------------

Node                                   Voltage
----                                   -------
vdd                                     1.9216
in                                           0
out                                     1.9216
nmid                                 0.0400541
vin#branch                                   0
vdd#branch                        -2.10929e-12

 Reference value :  2.87036e-08
 Reference value :  7.96176e-08
No. of Data Rows : 60047

  Measurements for Transient Analysis

tphl                =  7.25710e-11 targ=  2.16522e-09 trig=  2.09265e-09
tplh                =  4.49675e-11 targ=  2.23229e-08 trig=  2.22780e-08
i_vdd_avg           =  -1.40603e-06 from=  5.00000e-09 to=  1.10002e-07
power_avg_uw        =  2.70183e+00


Total analysis time (seconds) = 0.607349

Total elapsed time (seconds) = 0.707 

Total DRAM available = 16384.000 MB.
DRAM currently available =  322.000 MB.
Maximum ngspice program size =   14.719 MB.
Current ngspice program size =   14.719 MB.

