
Note: No compatibility mode selected!


Circuit: NAND2 seed characterization sample 20214

Doing analysis at TEMP = 51.728200 and TNOM = 27.000000

Using SPARSE 1.3 as Direct Linear Solver

Initial Transient Solution
--------------------------

Node                                   Voltage
----                                   -------
vdd                                    1.78983
in                                           0
out                                    1.78983
nmid                                 0.0340764
vin#branch                                   0
vdd#branch                         -1.9579e-12

 Reference value :  2.49829e-08
 Reference value :  7.34829e-08
No. of Data Rows : 60044

  Measurements for Transient Analysis

tphl                =  2.41791e-10 targ=  2.45477e-09 trig=  2.21298e-09
tplh                =  1.66883e-10 targ=  2.28058e-08 trig=  2.26390e-08
i_vdd_avg           =  -1.85935e-06 from=  5.00000e-09 to=  1.10001e-07
power_avg_uw        =  3.32791e+00


Total analysis time (seconds) = 0.68695

Total elapsed time (seconds) = 0.773 

Total DRAM available = 16384.000 MB.
DRAM currently available =  359.500 MB.
Maximum ngspice program size =   14.453 MB.
Current ngspice program size =   14.141 MB.

