
Note: No compatibility mode selected!


Circuit: NAND2 seed characterization sample 20222

Doing analysis at TEMP = 30.953100 and TNOM = 27.000000

Using SPARSE 1.3 as Direct Linear Solver

Initial Transient Solution
--------------------------

Node                                   Voltage
----                                   -------
vdd                                    1.65915
in                                           0
out                                    1.65915
nmid                                 0.0404391
vin#branch                                   0
vdd#branch                        -1.97877e-12

 Reference value :  2.15224e-08
 Reference value :  6.38218e-08
 Reference value :  1.09014e-07
No. of Data Rows : 60047

  Measurements for Transient Analysis

tphl                =  3.72583e-10 targ=  2.60829e-09 trig=  2.23571e-09
tplh                =  2.03253e-10 targ=  2.29104e-08 trig=  2.27071e-08
i_vdd_avg           =  -5.40454e-06 from=  5.00000e-09 to=  1.10002e-07
power_avg_uw        =  8.96694e+00


Total analysis time (seconds) = 0.703714

Total elapsed time (seconds) = 0.816 

Total DRAM available = 16384.000 MB.
DRAM currently available =  294.016 MB.
Maximum ngspice program size =   17.203 MB.
Current ngspice program size =   17.203 MB.

