
Note: No compatibility mode selected!


Circuit: NAND2 seed characterization sample 20220

Doing analysis at TEMP = 94.263400 and TNOM = 27.000000

Using SPARSE 1.3 as Direct Linear Solver

Initial Transient Solution
--------------------------

Node                                   Voltage
----                                   -------
vdd                                    1.66644
in                                           0
out                                    1.66644
nmid                                  0.056248
vin#branch                                   0
vdd#branch                        -3.82413e-12

 Reference value :  2.79477e-08
 Reference value :  6.71986e-08
 Reference value :  1.06327e-07
No. of Data Rows : 60062

  Measurements for Transient Analysis

tphl                =  2.62180e-10 targ=  2.26799e-09 trig=  2.00581e-09
tplh                =  7.42105e-11 targ=  2.20916e-08 trig=  2.20174e-08
i_vdd_avg           =  -3.70667e-06 from=  5.00000e-09 to=  1.10001e-07
power_avg_uw        =  6.17694e+00


Total analysis time (seconds) = 0.881854

Total elapsed time (seconds) = 0.978 

Total DRAM available = 16384.000 MB.
DRAM currently available =  328.969 MB.
Maximum ngspice program size =   13.219 MB.
Current ngspice program size =   13.219 MB.

