
Note: No compatibility mode selected!


Circuit: NAND2 seed characterization sample 20223

Doing analysis at TEMP = 93.857300 and TNOM = 27.000000

Using SPARSE 1.3 as Direct Linear Solver

Initial Transient Solution
--------------------------

Node                                   Voltage
----                                   -------
vdd                                    1.81927
in                                           0
out                                    1.81927
nmid                                 0.0397778
vin#branch                                   0
vdd#branch                        -2.16644e-12

 Reference value :  2.89962e-08
 Reference value :  7.85542e-08
No. of Data Rows : 60041

  Measurements for Transient Analysis

tphl                =  1.05044e-09 targ=  3.19175e-09 trig=  2.14131e-09
tplh                =  5.29084e-10 targ=  2.29530e-08 trig=  2.24239e-08
i_vdd_avg           =  -2.61493e-06 from=  5.00000e-09 to=  1.10000e-07
power_avg_uw        =  4.75726e+00


Total analysis time (seconds) = 0.63547

Total elapsed time (seconds) = 0.735 

Total DRAM available = 16384.000 MB.
DRAM currently available =  321.016 MB.
Maximum ngspice program size =   13.656 MB.
Current ngspice program size =   13.656 MB.

