
Note: No compatibility mode selected!


Circuit: NAND2 seed characterization sample 20224

Doing analysis at TEMP = 36.655100 and TNOM = 27.000000

Using SPARSE 1.3 as Direct Linear Solver

Initial Transient Solution
--------------------------

Node                                   Voltage
----                                   -------
vdd                                    1.96313
in                                           0
out                                    1.96313
nmid                                 0.0646663
vin#branch                                   0
vdd#branch                        -5.06145e-12

 Reference value :  3.15835e-08
 Reference value :  8.36202e-08
No. of Data Rows : 60047

  Measurements for Transient Analysis

tphl                =  1.04905e-10 targ=  2.13053e-09 trig=  2.02562e-09
tplh                =  4.19185e-11 targ=  2.21188e-08 trig=  2.20769e-08
i_vdd_avg           =  -2.41952e-06 from=  5.00000e-09 to=  1.10001e-07
power_avg_uw        =  4.74982e+00


Total analysis time (seconds) = 0.621991

Total elapsed time (seconds) = 0.717 

Total DRAM available = 16384.000 MB.
DRAM currently available =  314.750 MB.
Maximum ngspice program size =   14.266 MB.
Current ngspice program size =   14.266 MB.

