
Note: No compatibility mode selected!


Circuit: NAND2 seed characterization sample 20238

Doing analysis at TEMP = 82.581700 and TNOM = 27.000000

Using SPARSE 1.3 as Direct Linear Solver

Initial Transient Solution
--------------------------

Node                                   Voltage
----                                   -------
vdd                                    1.93775
in                                           0
out                                    1.93775
nmid                                  0.048106
vin#branch                                   0
vdd#branch                        -2.33871e-12

 Reference value :  2.40286e-08
 Reference value :  7.74786e-08
No. of Data Rows : 60044

  Measurements for Transient Analysis

tphl                =  6.29303e-10 targ=  2.76121e-09 trig=  2.13191e-09
tplh                =  2.73880e-10 targ=  2.26696e-08 trig=  2.23957e-08
i_vdd_avg           =  -4.46616e-06 from=  5.00000e-09 to=  1.10001e-07
power_avg_uw        =  8.65430e+00


Total analysis time (seconds) = 0.620895

Total elapsed time (seconds) = 0.733 

Total DRAM available = 16384.000 MB.
DRAM currently available =  153.109 MB.
Maximum ngspice program size =   14.750 MB.
Current ngspice program size =   14.750 MB.

