
Note: No compatibility mode selected!


Circuit: NAND2 seed characterization sample 20231

Doing analysis at TEMP = 18.532700 and TNOM = 27.000000

Using SPARSE 1.3 as Direct Linear Solver

Initial Transient Solution
--------------------------

Node                                   Voltage
----                                   -------
vdd                                    1.82121
in                                           0
out                                    1.82121
nmid                                 0.0253569
vin#branch                                   0
vdd#branch                         -1.9129e-12

 Reference value :  2.92131e-08
 Reference value :  7.97051e-08
No. of Data Rows : 60044

  Measurements for Transient Analysis

tphl                =  4.51490e-10 targ=  2.67152e-09 trig=  2.22003e-09
tplh                =  2.14778e-10 targ=  2.28749e-08 trig=  2.26601e-08
i_vdd_avg           =  -3.65651e-06 from=  5.00000e-09 to=  1.10001e-07
power_avg_uw        =  6.65927e+00


Total analysis time (seconds) = 0.586953

Total elapsed time (seconds) = 0.682 

Total DRAM available = 16384.000 MB.
DRAM currently available =  237.281 MB.
Maximum ngspice program size =   13.812 MB.
Current ngspice program size =   13.516 MB.

