
Note: No compatibility mode selected!


Circuit: NOR2 seed characterization sample 20242

Doing analysis at TEMP = 17.463100 and TNOM = 27.000000

Using SPARSE 1.3 as Direct Linear Solver

Initial Transient Solution
--------------------------

Node                                   Voltage
----                                   -------
vdd                                    1.75072
in                                           0
out                                    1.75072
pmid                                   1.75072
vin#branch                                   0
vdd#branch                        -1.74024e-11

 Reference value :  2.84432e-08
 Reference value :  8.07132e-08
No. of Data Rows : 60044

  Measurements for Transient Analysis

tphl                =  1.28756e-10 targ=  2.36181e-09 trig=  2.23305e-09
tplh                =  3.37660e-10 targ=  2.30368e-08 trig=  2.26992e-08
i_vdd_avg           =  -4.48778e-06 from=  5.00000e-09 to=  1.10001e-07
power_avg_uw        =  7.85684e+00


Total analysis time (seconds) = 0.589827

Total elapsed time (seconds) = 0.685 

Total DRAM available = 16384.000 MB.
DRAM currently available =  211.547 MB.
Maximum ngspice program size =   14.250 MB.
Current ngspice program size =   14.203 MB.

