
Note: No compatibility mode selected!


Circuit: NOR2 seed characterization sample 20249

Doing analysis at TEMP = 96.416100 and TNOM = 27.000000

Using SPARSE 1.3 as Direct Linear Solver

Initial Transient Solution
--------------------------

Node                                   Voltage
----                                   -------
vdd                                    1.97991
in                                           0
out                                    1.97991
pmid                                   1.97991
vin#branch                                   0
vdd#branch                        -4.28278e-11

 Reference value :  1.91631e-08
 Reference value :  6.85211e-08
 Reference value :  1.10797e-07
No. of Data Rows : 60044

  Measurements for Transient Analysis

tphl                =  2.85247e-10 targ=  2.38428e-09 trig=  2.09903e-09
tplh                =  1.09371e-09 targ=  2.33908e-08 trig=  2.22971e-08
i_vdd_avg           =  -5.44048e-06 from=  5.00000e-09 to=  1.10001e-07
power_avg_uw        =  1.07717e+01


Total analysis time (seconds) = 0.70436

Total elapsed time (seconds) = 0.826 

Total DRAM available = 16384.000 MB.
DRAM currently available =  245.703 MB.
Maximum ngspice program size =   17.547 MB.
Current ngspice program size =   17.547 MB.

