
Note: No compatibility mode selected!


Circuit: NOR2 seed characterization sample 20245

Doing analysis at TEMP = 4.899060 and TNOM = 27.000000

Using SPARSE 1.3 as Direct Linear Solver

Initial Transient Solution
--------------------------

Node                                   Voltage
----                                   -------
vdd                                    1.74542
in                                           0
out                                    1.74542
pmid                                   1.74542
vin#branch                                   0
vdd#branch                        -8.52682e-12

 Reference value :  2.22417e-08
 Reference value :  7.49465e-08
No. of Data Rows : 60041

  Measurements for Transient Analysis

tphl                =  6.25156e-11 targ=  2.23089e-09 trig=  2.16837e-09
tplh                =  2.08476e-10 targ=  2.27136e-08 trig=  2.25051e-08
i_vdd_avg           =  -2.03870e-06 from=  5.00000e-09 to=  1.10000e-07
power_avg_uw        =  3.55838e+00


Total analysis time (seconds) = 0.610216

Total elapsed time (seconds) = 0.712 

Total DRAM available = 16384.000 MB.
DRAM currently available =  123.438 MB.
Maximum ngspice program size =   14.781 MB.
Current ngspice program size =   14.781 MB.

