
Note: No compatibility mode selected!


Circuit: NOR2 seed characterization sample 20246

Doing analysis at TEMP = 97.869100 and TNOM = 27.000000

Using SPARSE 1.3 as Direct Linear Solver

Initial Transient Solution
--------------------------

Node                                   Voltage
----                                   -------
vdd                                    1.80769
in                                           0
out                                    1.80769
pmid                                   1.80769
vin#branch                                   0
vdd#branch                        -7.99278e-11

 Reference value :  2.19177e-08
 Reference value :  6.54784e-08
 Reference value :  1.19084e-07
No. of Data Rows : 60041

  Measurements for Transient Analysis

tphl                =  1.70161e-10 targ=  2.34752e-09 trig=  2.17736e-09
tplh                =  4.76788e-10 targ=  2.30089e-08 trig=  2.25321e-08
i_vdd_avg           =  -3.06059e-06 from=  5.00000e-09 to=  1.10000e-07
power_avg_uw        =  5.53260e+00


Total analysis time (seconds) = 0.638419

Total elapsed time (seconds) = 0.754 

Total DRAM available = 16384.000 MB.
DRAM currently available =  123.625 MB.
Maximum ngspice program size =   13.906 MB.
Current ngspice program size =   13.906 MB.

