
Note: No compatibility mode selected!


Circuit: NOR2 seed characterization sample 20257

Doing analysis at TEMP = 29.698900 and TNOM = 27.000000

Using SPARSE 1.3 as Direct Linear Solver

Initial Transient Solution
--------------------------

Node                                   Voltage
----                                   -------
vdd                                     1.9432
in                                           0
out                                     1.9432
pmid                                    1.9432
vin#branch                                   0
vdd#branch                        -3.79692e-11

 Reference value :  3.44059e-08
 Reference value :  9.24815e-08
No. of Data Rows : 60044

  Measurements for Transient Analysis

tphl                =  7.36145e-11 targ=  2.11485e-09 trig=  2.04124e-09
tplh                =  3.62783e-10 targ=  2.24865e-08 trig=  2.21237e-08
i_vdd_avg           =  -4.65484e-06 from=  5.00000e-09 to=  1.10002e-07
power_avg_uw        =  9.04528e+00


Total analysis time (seconds) = 0.564952

Total elapsed time (seconds) = 0.648 

Total DRAM available = 16384.000 MB.
DRAM currently available =  320.328 MB.
Maximum ngspice program size =   13.484 MB.
Current ngspice program size =   13.172 MB.

