
Note: No compatibility mode selected!


Circuit: NOR2 seed characterization sample 20254

Doing analysis at TEMP = 19.629100 and TNOM = 27.000000

Using SPARSE 1.3 as Direct Linear Solver

Initial Transient Solution
--------------------------

Node                                   Voltage
----                                   -------
vdd                                    1.90159
in                                           0
out                                    1.90159
pmid                                   1.90159
vin#branch                                   0
vdd#branch                        -6.99809e-12

 Reference value :  2.85084e-08
 Reference value :  8.72297e-08
No. of Data Rows : 60041

  Measurements for Transient Analysis

tphl                =  1.85116e-10 targ=  2.29346e-09 trig=  2.10835e-09
tplh                =  7.84175e-10 targ=  2.31092e-08 trig=  2.23250e-08
i_vdd_avg           =  -2.32545e-06 from=  5.00000e-09 to=  1.10000e-07
power_avg_uw        =  4.42205e+00


Total analysis time (seconds) = 0.525167

Total elapsed time (seconds) = 0.637 

Total DRAM available = 16384.000 MB.
DRAM currently available =  330.031 MB.
Maximum ngspice program size =   14.969 MB.
Current ngspice program size =   14.969 MB.

