
Note: No compatibility mode selected!


Circuit: NOR2 seed characterization sample 20258

Doing analysis at TEMP = 76.099200 and TNOM = 27.000000

Using SPARSE 1.3 as Direct Linear Solver

Initial Transient Solution
--------------------------

Node                                   Voltage
----                                   -------
vdd                                    1.78969
in                                           0
out                                    1.78969
pmid                                   1.78969
vin#branch                                   0
vdd#branch                        -5.70325e-11

 Reference value :  3.33772e-08
 Reference value :  9.10771e-08
No. of Data Rows : 60044

  Measurements for Transient Analysis

tphl                =  9.86984e-11 targ=  2.13274e-09 trig=  2.03404e-09
tplh                =  5.26884e-10 targ=  2.26290e-08 trig=  2.21021e-08
i_vdd_avg           =  -6.05542e-06 from=  5.00000e-09 to=  1.10001e-07
power_avg_uw        =  1.08373e+01


Total analysis time (seconds) = 0.536349

Total elapsed time (seconds) = 0.622 

Total DRAM available = 16384.000 MB.
DRAM currently available =  180.391 MB.
Maximum ngspice program size =   14.219 MB.
Current ngspice program size =   14.219 MB.

