
Note: No compatibility mode selected!


Circuit: NOR2 seed characterization sample 20267

Doing analysis at TEMP = -1.066850 and TNOM = 27.000000

Using SPARSE 1.3 as Direct Linear Solver

Initial Transient Solution
--------------------------

Node                                   Voltage
----                                   -------
vdd                                    1.85461
in                                           0
out                                    1.85461
pmid                                   1.85461
vin#branch                                   0
vdd#branch                        -3.89211e-12

 Reference value :  3.57821e-08
 Reference value :  9.46831e-08
No. of Data Rows : 60050

  Measurements for Transient Analysis

tphl                =  6.47893e-11 targ=  2.07555e-09 trig=  2.01076e-09
tplh                =  2.39313e-10 targ=  2.22716e-08 trig=  2.20323e-08
i_vdd_avg           =  -5.09681e-06 from=  5.00000e-09 to=  1.10000e-07
power_avg_uw        =  9.45259e+00


Total analysis time (seconds) = 0.513028

Total elapsed time (seconds) = 0.598 

Total DRAM available = 16384.000 MB.
DRAM currently available =  146.609 MB.
Maximum ngspice program size =   13.375 MB.
Current ngspice program size =   13.375 MB.

