
Note: No compatibility mode selected!


Circuit: NOR2 seed characterization sample 20264

Doing analysis at TEMP = 14.851200 and TNOM = 27.000000

Using SPARSE 1.3 as Direct Linear Solver

Initial Transient Solution
--------------------------

Node                                   Voltage
----                                   -------
vdd                                     1.7069
in                                           0
out                                     1.7069
pmid                                    1.7069
vin#branch                                   0
vdd#branch                         -3.8581e-12

 Reference value :  1.83045e-08
 Reference value :  5.96905e-08
 Reference value :  1.15934e-07
No. of Data Rows : 60047

  Measurements for Transient Analysis

tphl                =  9.70161e-11 targ=  2.29974e-09 trig=  2.20273e-09
tplh                =  2.97789e-10 targ=  2.29060e-08 trig=  2.26082e-08
i_vdd_avg           =  -1.46581e-06 from=  5.00000e-09 to=  1.10002e-07
power_avg_uw        =  2.50199e+00


Total analysis time (seconds) = 0.702759

Total elapsed time (seconds) = 0.824 

Total DRAM available = 16384.000 MB.
DRAM currently available =   93.125 MB.
Maximum ngspice program size =   17.203 MB.
Current ngspice program size =   17.203 MB.

