
Note: No compatibility mode selected!


Circuit: NOR2 seed characterization sample 20263

Doing analysis at TEMP = 39.551700 and TNOM = 27.000000

Using SPARSE 1.3 as Direct Linear Solver

Initial Transient Solution
--------------------------

Node                                   Voltage
----                                   -------
vdd                                    1.62629
in                                           0
out                                    1.62629
pmid                                   1.62629
vin#branch                                   0
vdd#branch                        -1.95124e-11

 Reference value :  3.26272e-08
 Reference value :  8.42981e-08
No. of Data Rows : 60047

  Measurements for Transient Analysis

tphl                =  1.91074e-10 targ=  2.39162e-09 trig=  2.20054e-09
tplh                =  5.19612e-10 targ=  2.31212e-08 trig=  2.26016e-08
i_vdd_avg           =  -2.39569e-06 from=  5.00000e-09 to=  1.10001e-07
power_avg_uw        =  3.89609e+00


Total analysis time (seconds) = 0.718136

Total elapsed time (seconds) = 0.799 

Total DRAM available = 16384.000 MB.
DRAM currently available =  226.594 MB.
Maximum ngspice program size =   13.844 MB.
Current ngspice program size =   13.844 MB.

