
Note: No compatibility mode selected!


Circuit: NOR2 seed characterization sample 20269

Doing analysis at TEMP = -19.047700 and TNOM = 27.000000

Using SPARSE 1.3 as Direct Linear Solver

Initial Transient Solution
--------------------------

Node                                   Voltage
----                                   -------
vdd                                    1.94883
in                                           0
out                                    1.94883
pmid                                   1.94883
vin#branch                                   0
vdd#branch                        -4.03792e-12

 Reference value :  3.54894e-08
 Reference value :  9.43142e-08
No. of Data Rows : 60047

  Measurements for Transient Analysis

tphl                =  6.03443e-11 targ=  2.18293e-09 trig=  2.12259e-09
tplh                =  2.21681e-10 targ=  2.25894e-08 trig=  2.23678e-08
i_vdd_avg           =  -4.64043e-07 from=  5.00000e-09 to=  1.10001e-07
power_avg_uw        =  9.04341e-01


Total analysis time (seconds) = 0.516935

Total elapsed time (seconds) = 0.604 

Total DRAM available = 16384.000 MB.
DRAM currently available =  146.781 MB.
Maximum ngspice program size =   13.844 MB.
Current ngspice program size =   13.844 MB.

