
Note: No compatibility mode selected!


Circuit: NOR2 seed characterization sample 20270

Doing analysis at TEMP = 25.435900 and TNOM = 27.000000

Using SPARSE 1.3 as Direct Linear Solver

Initial Transient Solution
--------------------------

Node                                   Voltage
----                                   -------
vdd                                    1.82522
in                                           0
out                                    1.82522
pmid                                   1.82522
vin#branch                                   0
vdd#branch                        -4.92905e-12

 Reference value :  3.61885e-08
 Reference value :  9.52498e-08
No. of Data Rows : 60041

  Measurements for Transient Analysis

tphl                =  9.43476e-11 targ=  2.15473e-09 trig=  2.06039e-09
tplh                =  4.05050e-10 targ=  2.25862e-08 trig=  2.21812e-08
i_vdd_avg           =  -4.27275e-06 from=  5.00000e-09 to=  1.10001e-07
power_avg_uw        =  7.79871e+00


Total analysis time (seconds) = 0.511036

Total elapsed time (seconds) = 0.594 

Total DRAM available = 16384.000 MB.
DRAM currently available =  134.031 MB.
Maximum ngspice program size =   14.328 MB.
Current ngspice program size =   14.328 MB.

