
Note: No compatibility mode selected!


Circuit: NOR2 seed characterization sample 20274

Doing analysis at TEMP = 86.392200 and TNOM = 27.000000

Using SPARSE 1.3 as Direct Linear Solver

Initial Transient Solution
--------------------------

Node                                   Voltage
----                                   -------
vdd                                    1.69539
in                                           0
out                                    1.69539
pmid                                   1.69539
vin#branch                                   0
vdd#branch                        -8.44398e-12

 Reference value :  2.57755e-08
 Reference value :  7.46695e-08
No. of Data Rows : 60044

  Measurements for Transient Analysis

tphl                =  2.60107e-10 targ=  2.48423e-09 trig=  2.22413e-09
tplh                =  8.81552e-10 targ=  2.35539e-08 trig=  2.26724e-08
i_vdd_avg           =  -4.36888e-06 from=  5.00000e-09 to=  1.10002e-07
power_avg_uw        =  7.40695e+00


Total analysis time (seconds) = 0.601739

Total elapsed time (seconds) = 0.727 

Total DRAM available = 16384.000 MB.
DRAM currently available =  101.500 MB.
Maximum ngspice program size =   17.516 MB.
Current ngspice program size =   17.516 MB.

