
Note: No compatibility mode selected!


Circuit: NOR2 seed characterization sample 20273

Doing analysis at TEMP = 1.541050 and TNOM = 27.000000

Using SPARSE 1.3 as Direct Linear Solver

Initial Transient Solution
--------------------------

Node                                   Voltage
----                                   -------
vdd                                    1.77249
in                                           0
out                                    1.77249
pmid                                   1.77249
vin#branch                                   0
vdd#branch                        -3.79763e-12

 Reference value :  3.75865e-08
 Reference value :  9.13468e-08
No. of Data Rows : 60044

  Measurements for Transient Analysis

tphl                =  1.01808e-10 targ=  2.18469e-09 trig=  2.08288e-09
tplh                =  3.89075e-10 targ=  2.26377e-08 trig=  2.22487e-08
i_vdd_avg           =  -5.95483e-06 from=  5.00000e-09 to=  1.10001e-07
power_avg_uw        =  1.05549e+01


Total analysis time (seconds) = 0.640161

Total elapsed time (seconds) = 0.721 

Total DRAM available = 16384.000 MB.
DRAM currently available =  131.797 MB.
Maximum ngspice program size =   12.953 MB.
Current ngspice program size =   12.625 MB.

