
Note: No compatibility mode selected!


Circuit: NOR2 seed characterization sample 20275

Doing analysis at TEMP = -16.199400 and TNOM = 27.000000

Using SPARSE 1.3 as Direct Linear Solver

Initial Transient Solution
--------------------------

Node                                   Voltage
----                                   -------
vdd                                    1.94415
in                                           0
out                                    1.94415
pmid                                   1.94415
vin#branch                                   0
vdd#branch                        -4.56927e-12

 Reference value :  3.14579e-08
 Reference value :  8.34925e-08
No. of Data Rows : 60047

  Measurements for Transient Analysis

tphl                =  6.75289e-11 targ=  2.17026e-09 trig=  2.10273e-09
tplh                =  1.82239e-10 targ=  2.24904e-08 trig=  2.23082e-08
i_vdd_avg           =  -2.00877e-06 from=  5.00000e-09 to=  1.10002e-07
power_avg_uw        =  3.90535e+00


Total analysis time (seconds) = 0.578096

Total elapsed time (seconds) = 0.667 

Total DRAM available = 16384.000 MB.
DRAM currently available =   98.078 MB.
Maximum ngspice program size =   14.203 MB.
Current ngspice program size =   14.203 MB.

