
Note: No compatibility mode selected!


Circuit: NOR2 seed characterization sample 20288

Doing analysis at TEMP = 95.869200 and TNOM = 27.000000

Using SPARSE 1.3 as Direct Linear Solver

Initial Transient Solution
--------------------------

Node                                   Voltage
----                                   -------
vdd                                    1.80482
in                                           0
out                                    1.80482
pmid                                   1.80482
vin#branch                                   0
vdd#branch                        -1.37565e-10

 Reference value :  3.05971e-08
 Reference value :  7.51591e-08
No. of Data Rows : 60044

  Measurements for Transient Analysis

tphl                =  1.36378e-10 targ=  2.18041e-09 trig=  2.04404e-09
tplh                =  4.53715e-10 targ=  2.25858e-08 trig=  2.21321e-08
i_vdd_avg           =  -6.00081e-06 from=  5.00000e-09 to=  1.10001e-07
power_avg_uw        =  1.08304e+01


Total analysis time (seconds) = 0.678383

Total elapsed time (seconds) = 0.769 

Total DRAM available = 16384.000 MB.
DRAM currently available =  209.219 MB.
Maximum ngspice program size =   13.875 MB.
Current ngspice program size =   13.328 MB.

