
Note: No compatibility mode selected!


Circuit: NOR2 seed characterization sample 20282

Doing analysis at TEMP = 16.828900 and TNOM = 27.000000

Using SPARSE 1.3 as Direct Linear Solver

Initial Transient Solution
--------------------------

Node                                   Voltage
----                                   -------
vdd                                    1.90959
in                                           0
out                                    1.90959
pmid                                   1.90959
vin#branch                                   0
vdd#branch                        -4.16307e-12

 Reference value :  2.77344e-08
 Reference value :  8.00024e-08
No. of Data Rows : 60044

  Measurements for Transient Analysis

tphl                =  5.19488e-11 targ=  2.06580e-09 trig=  2.01385e-09
tplh                =  2.74590e-10 targ=  2.23161e-08 trig=  2.20415e-08
i_vdd_avg           =  -1.86433e-06 from=  5.00000e-09 to=  1.10000e-07
power_avg_uw        =  3.56010e+00


Total analysis time (seconds) = 0.586333

Total elapsed time (seconds) = 0.687 

Total DRAM available = 16384.000 MB.
DRAM currently available =  205.719 MB.
Maximum ngspice program size =   14.562 MB.
Current ngspice program size =   14.562 MB.

