
Note: No compatibility mode selected!


Circuit: NOR2 seed characterization sample 20281

Doing analysis at TEMP = 2.872920 and TNOM = 27.000000

Using SPARSE 1.3 as Direct Linear Solver

Initial Transient Solution
--------------------------

Node                                   Voltage
----                                   -------
vdd                                    1.90303
in                                           0
out                                    1.90303
pmid                                   1.90303
vin#branch                                   0
vdd#branch                        -8.61918e-12

 Reference value :  3.27649e-08
 Reference value :  8.14769e-08
No. of Data Rows : 60041

  Measurements for Transient Analysis

tphl                =  4.51556e-11 targ=  2.18164e-09 trig=  2.13648e-09
tplh                =  1.37703e-10 targ=  2.25471e-08 trig=  2.24094e-08
i_vdd_avg           =  -2.02255e-06 from=  5.00000e-09 to=  1.10001e-07
power_avg_uw        =  3.84898e+00


Total analysis time (seconds) = 0.580996

Total elapsed time (seconds) = 0.673 

Total DRAM available = 16384.000 MB.
DRAM currently available =  140.297 MB.
Maximum ngspice program size =   13.172 MB.
Current ngspice program size =   12.344 MB.

