
Note: No compatibility mode selected!


Circuit: NOR2 seed characterization sample 20286

Doing analysis at TEMP = 54.584500 and TNOM = 27.000000

Using SPARSE 1.3 as Direct Linear Solver

Initial Transient Solution
--------------------------

Node                                   Voltage
----                                   -------
vdd                                    1.97698
in                                           0
out                                    1.97698
pmid                                   1.97698
vin#branch                                   0
vdd#branch                        -5.28132e-12

 Reference value :  3.13561e-08
 Reference value :  8.37315e-08
No. of Data Rows : 60041

  Measurements for Transient Analysis

tphl                =  1.35937e-10 targ=  2.22721e-09 trig=  2.09127e-09
tplh                =  7.02412e-10 targ=  2.29762e-08 trig=  2.22738e-08
i_vdd_avg           =  -6.10053e-06 from=  5.00000e-09 to=  1.10000e-07
power_avg_uw        =  1.20606e+01


Total analysis time (seconds) = 0.574284

Total elapsed time (seconds) = 0.672 

Total DRAM available = 16384.000 MB.
DRAM currently available =  232.625 MB.
Maximum ngspice program size =   14.453 MB.
Current ngspice program size =   14.453 MB.

