
Note: No compatibility mode selected!


Circuit: NOR2 seed characterization sample 20283

Doing analysis at TEMP = 87.144600 and TNOM = 27.000000

Using SPARSE 1.3 as Direct Linear Solver

Initial Transient Solution
--------------------------

Node                                   Voltage
----                                   -------
vdd                                    1.68273
in                                           0
out                                    1.68273
pmid                                   1.68273
vin#branch                                   0
vdd#branch                         -6.7452e-12

 Reference value :  1.82698e-08
 Reference value :  5.83958e-08
 Reference value :  1.03359e-07
No. of Data Rows : 60041

  Measurements for Transient Analysis

tphl                =  1.76055e-10 targ=  2.39246e-09 trig=  2.21641e-09
tplh                =  5.84750e-10 targ=  2.32340e-08 trig=  2.26492e-08
i_vdd_avg           =  -1.55024e-06 from=  5.00000e-09 to=  1.10001e-07
power_avg_uw        =  2.60863e+00


Total analysis time (seconds) = 0.74764

Total elapsed time (seconds) = 0.876 

Total DRAM available = 16384.000 MB.
DRAM currently available =  217.312 MB.
Maximum ngspice program size =   15.859 MB.
Current ngspice program size =   15.859 MB.

