
Note: No compatibility mode selected!


Circuit: NOR2 seed characterization sample 20284

Doing analysis at TEMP = 83.603600 and TNOM = 27.000000

Using SPARSE 1.3 as Direct Linear Solver

Initial Transient Solution
--------------------------

Node                                   Voltage
----                                   -------
vdd                                    1.64135
in                                           0
out                                    1.64135
pmid                                   1.64135
vin#branch                                   0
vdd#branch                        -9.60218e-10

 Reference value :  3.03876e-08
 Reference value :  8.21343e-08
No. of Data Rows : 60047

  Measurements for Transient Analysis

tphl                =  6.00513e-11 targ=  2.11170e-09 trig=  2.05165e-09
tplh                =  1.57214e-10 targ=  2.23122e-08 trig=  2.21550e-08
i_vdd_avg           =  -3.20112e-06 from=  5.00000e-09 to=  1.10002e-07
power_avg_uw        =  5.25416e+00


Total analysis time (seconds) = 0.58301

Total elapsed time (seconds) = 0.682 

Total DRAM available = 16384.000 MB.
DRAM currently available =  268.297 MB.
Maximum ngspice program size =   14.062 MB.
Current ngspice program size =   13.828 MB.

