
Note: No compatibility mode selected!


Circuit: NOR2 seed characterization sample 20295

Doing analysis at TEMP = 64.779400 and TNOM = 27.000000

Using SPARSE 1.3 as Direct Linear Solver

Initial Transient Solution
--------------------------

Node                                   Voltage
----                                   -------
vdd                                    1.72551
in                                           0
out                                    1.72551
pmid                                   1.72551
vin#branch                                   0
vdd#branch                        -3.77306e-12

 Reference value :  2.36882e-08
 Reference value :  6.98202e-08
 Reference value :  1.14848e-07
No. of Data Rows : 60044

  Measurements for Transient Analysis

tphl                =  2.51447e-10 targ=  2.29824e-09 trig=  2.04679e-09
tplh                =  1.29581e-09 targ=  2.34362e-08 trig=  2.21404e-08
i_vdd_avg           =  -1.90535e-06 from=  5.00000e-09 to=  1.10000e-07
power_avg_uw        =  3.28770e+00


Total analysis time (seconds) = 0.656146

Total elapsed time (seconds) = 0.775 

Total DRAM available = 16384.000 MB.
DRAM currently available =  290.906 MB.
Maximum ngspice program size =   14.844 MB.
Current ngspice program size =   14.844 MB.

