
Note: No compatibility mode selected!


Circuit: NOR2 seed characterization sample 20296

Doing analysis at TEMP = 53.354500 and TNOM = 27.000000

Using SPARSE 1.3 as Direct Linear Solver

Initial Transient Solution
--------------------------

Node                                   Voltage
----                                   -------
vdd                                    1.86938
in                                           0
out                                    1.86938
pmid                                   1.86938
vin#branch                                   0
vdd#branch                        -3.89551e-11

 Reference value :  2.12586e-08
 Reference value :  7.00222e-08
 Reference value :  1.14068e-07
No. of Data Rows : 60044

  Measurements for Transient Analysis

tphl                =  2.59941e-10 targ=  2.44174e-09 trig=  2.18180e-09
tplh                =  1.05809e-09 targ=  2.36035e-08 trig=  2.25454e-08
i_vdd_avg           =  -5.19436e-06 from=  5.00000e-09 to=  1.10000e-07
power_avg_uw        =  9.71024e+00


Total analysis time (seconds) = 0.663732

Total elapsed time (seconds) = 0.790 

Total DRAM available = 16384.000 MB.
DRAM currently available =  297.141 MB.
Maximum ngspice program size =   17.250 MB.
Current ngspice program size =   17.250 MB.

