
Note: No compatibility mode selected!


Circuit: NOR2 seed characterization sample 20293

Doing analysis at TEMP = 91.906200 and TNOM = 27.000000

Using SPARSE 1.3 as Direct Linear Solver

Initial Transient Solution
--------------------------

Node                                   Voltage
----                                   -------
vdd                                    1.66767
in                                           0
out                                    1.66767
pmid                                   1.66767
vin#branch                                   0
vdd#branch                        -7.11372e-10

 Reference value :  2.56772e-08
 Reference value :  7.11052e-08
 Reference value :  1.11971e-07
No. of Data Rows : 60044

  Measurements for Transient Analysis

tphl                =  1.60905e-10 targ=  2.35395e-09 trig=  2.19304e-09
tplh                =  3.93510e-10 targ=  2.29726e-08 trig=  2.25791e-08
i_vdd_avg           =  -3.69219e-06 from=  5.00000e-09 to=  1.10001e-07
power_avg_uw        =  6.15736e+00


Total analysis time (seconds) = 0.720319

Total elapsed time (seconds) = 0.824 

Total DRAM available = 16384.000 MB.
DRAM currently available =  311.844 MB.
Maximum ngspice program size =   14.953 MB.
Current ngspice program size =   14.953 MB.

