
Note: No compatibility mode selected!


Circuit: NOR2 seed characterization sample 20301

Doing analysis at TEMP = 13.248800 and TNOM = 27.000000

Using SPARSE 1.3 as Direct Linear Solver

Initial Transient Solution
--------------------------

Node                                   Voltage
----                                   -------
vdd                                    1.85837
in                                           0
out                                    1.85837
pmid                                   1.85837
vin#branch                                   0
vdd#branch                        -3.74706e-12

 Reference value :  2.66283e-08
 Reference value :  7.55583e-08
No. of Data Rows : 60044

  Measurements for Transient Analysis

tphl                =  2.95541e-10 targ=  2.54436e-09 trig=  2.24882e-09
tplh                =  1.00401e-09 targ=  2.37505e-08 trig=  2.27465e-08
i_vdd_avg           =  -3.79455e-06 from=  5.00000e-09 to=  1.10000e-07
power_avg_uw        =  7.05168e+00


Total analysis time (seconds) = 0.644545

Total elapsed time (seconds) = 0.743 

Total DRAM available = 16384.000 MB.
DRAM currently available =  336.688 MB.
Maximum ngspice program size =   13.641 MB.
Current ngspice program size =   12.953 MB.

