
Note: No compatibility mode selected!


Circuit: NOR2 seed characterization sample 20306

Doing analysis at TEMP = -18.623800 and TNOM = 27.000000

Using SPARSE 1.3 as Direct Linear Solver

Initial Transient Solution
--------------------------

Node                                   Voltage
----                                   -------
vdd                                    1.95347
in                                           0
out                                    1.95347
pmid                                   1.95347
vin#branch                                   0
vdd#branch                        -3.94402e-12

 Reference value :  2.16755e-08
 Reference value :  6.46300e-08
 Reference value :  1.04956e-07
No. of Data Rows : 60041

  Measurements for Transient Analysis

tphl                =  1.14489e-10 targ=  2.21174e-09 trig=  2.09725e-09
tplh                =  4.29364e-10 targ=  2.27211e-08 trig=  2.22918e-08
i_vdd_avg           =  -5.37816e-06 from=  5.00000e-09 to=  1.10000e-07
power_avg_uw        =  1.05061e+01


Total analysis time (seconds) = 0.740933

Total elapsed time (seconds) = 0.868 

Total DRAM available = 16384.000 MB.
DRAM currently available =  187.969 MB.
Maximum ngspice program size =   16.344 MB.
Current ngspice program size =   16.344 MB.

