
Note: No compatibility mode selected!


Circuit: NOR2 seed characterization sample 20304

Doing analysis at TEMP = 60.643600 and TNOM = 27.000000

Using SPARSE 1.3 as Direct Linear Solver

Initial Transient Solution
--------------------------

Node                                   Voltage
----                                   -------
vdd                                    1.63368
in                                           0
out                                    1.63368
pmid                                   1.63368
vin#branch                                   0
vdd#branch                        -3.71131e-12

 Reference value :  2.27033e-08
 Reference value :  6.75353e-08
 Reference value :  1.13575e-07
No. of Data Rows : 60044

  Measurements for Transient Analysis

tphl                =  3.71908e-10 targ=  2.48499e-09 trig=  2.11308e-09
tplh                =  1.61723e-09 targ=  2.39565e-08 trig=  2.23392e-08
i_vdd_avg           =  -4.44906e-06 from=  5.00000e-09 to=  1.10001e-07
power_avg_uw        =  7.26833e+00


Total analysis time (seconds) = 0.721881

Total elapsed time (seconds) = 0.833 

Total DRAM available = 16384.000 MB.
DRAM currently available =  216.266 MB.
Maximum ngspice program size =   14.203 MB.
Current ngspice program size =   13.703 MB.

