
Note: No compatibility mode selected!


Circuit: NOR2 seed characterization sample 20305

Doing analysis at TEMP = 69.707100 and TNOM = 27.000000

Using SPARSE 1.3 as Direct Linear Solver

Initial Transient Solution
--------------------------

Node                                   Voltage
----                                   -------
vdd                                    1.81374
in                                           0
out                                    1.81374
pmid                                   1.81374
vin#branch                                   0
vdd#branch                        -3.23505e-10

 Reference value :  2.42978e-08
 Reference value :  6.41018e-08
 Reference value :  1.03134e-07
No. of Data Rows : 60047

  Measurements for Transient Analysis

tphl                =  8.88010e-11 targ=  2.32449e-09 trig=  2.23569e-09
tplh                =  2.48606e-10 targ=  2.29557e-08 trig=  2.27071e-08
i_vdd_avg           =  -2.92984e-06 from=  5.00000e-09 to=  1.10002e-07
power_avg_uw        =  5.31397e+00


Total analysis time (seconds) = 0.764034

Total elapsed time (seconds) = 0.876 

Total DRAM available = 16384.000 MB.
DRAM currently available =  180.234 MB.
Maximum ngspice program size =   14.672 MB.
Current ngspice program size =   14.672 MB.

