
Note: No compatibility mode selected!


Circuit: NOR2 seed characterization sample 20309

Doing analysis at TEMP = -3.103130 and TNOM = 27.000000

Using SPARSE 1.3 as Direct Linear Solver

Initial Transient Solution
--------------------------

Node                                   Voltage
----                                   -------
vdd                                    1.76605
in                                           0
out                                    1.76605
pmid                                   1.76605
vin#branch                                   0
vdd#branch                        -3.69523e-12

 Reference value :  2.30385e-08
 Reference value :  6.85985e-08
 Reference value :  1.14595e-07
No. of Data Rows : 60041

  Measurements for Transient Analysis

tphl                =  5.14671e-11 targ=  2.07784e-09 trig=  2.02638e-09
tplh                =  1.90538e-10 targ=  2.22697e-08 trig=  2.20791e-08
i_vdd_avg           =  -2.87424e-06 from=  5.00000e-09 to=  1.10001e-07
power_avg_uw        =  5.07605e+00


Total analysis time (seconds) = 0.669305

Total elapsed time (seconds) = 0.779 

Total DRAM available = 16384.000 MB.
DRAM currently available =  207.062 MB.
Maximum ngspice program size =   13.578 MB.
Current ngspice program size =   13.234 MB.

