
Note: No compatibility mode selected!


Circuit: NOR2 seed characterization sample 20310

Doing analysis at TEMP = -13.514400 and TNOM = 27.000000

Using SPARSE 1.3 as Direct Linear Solver

Initial Transient Solution
--------------------------

Node                                   Voltage
----                                   -------
vdd                                    1.84828
in                                           0
out                                    1.84828
pmid                                   1.84828
vin#branch                                   0
vdd#branch                        -3.71963e-12

 Reference value :  2.44300e-08
 Reference value :  6.66480e-08
 Reference value :  1.12984e-07
No. of Data Rows : 60044

  Measurements for Transient Analysis

tphl                =  1.26247e-10 targ=  2.28400e-09 trig=  2.15775e-09
tplh                =  4.35714e-10 targ=  2.29090e-08 trig=  2.24733e-08
i_vdd_avg           =  -4.25968e-06 from=  5.00000e-09 to=  1.10000e-07
power_avg_uw        =  7.87308e+00


Total analysis time (seconds) = 0.678917

Total elapsed time (seconds) = 0.781 

Total DRAM available = 16384.000 MB.
DRAM currently available =  224.016 MB.
Maximum ngspice program size =   13.516 MB.
Current ngspice program size =   13.156 MB.

