
Note: No compatibility mode selected!


Circuit: NOR2 seed characterization sample 20314

Doing analysis at TEMP = 90.458200 and TNOM = 27.000000

Using SPARSE 1.3 as Direct Linear Solver

Initial Transient Solution
--------------------------

Node                                   Voltage
----                                   -------
vdd                                    1.76721
in                                           0
out                                    1.76721
pmid                                   1.76721
vin#branch                                   0
vdd#branch                        -1.17881e-09

 Reference value :  2.25680e-08
 Reference value :  6.97729e-08
 Reference value :  1.14651e-07
No. of Data Rows : 60041

  Measurements for Transient Analysis

tphl                =  8.95175e-11 targ=  2.25400e-09 trig=  2.16448e-09
tplh                =  2.95822e-10 targ=  2.27893e-08 trig=  2.24934e-08
i_vdd_avg           =  -3.35815e-06 from=  5.00000e-09 to=  1.10001e-07
power_avg_uw        =  5.93455e+00


Total analysis time (seconds) = 0.670806

Total elapsed time (seconds) = 0.774 

Total DRAM available = 16384.000 MB.
DRAM currently available =  200.531 MB.
Maximum ngspice program size =   14.219 MB.
Current ngspice program size =   14.219 MB.

