
Note: No compatibility mode selected!


Circuit: NOR2 seed characterization sample 20311

Doing analysis at TEMP = 81.999100 and TNOM = 27.000000

Using SPARSE 1.3 as Direct Linear Solver

Initial Transient Solution
--------------------------

Node                                   Voltage
----                                   -------
vdd                                    1.96413
in                                           0
out                                    1.96413
pmid                                   1.96413
vin#branch                                   0
vdd#branch                        -7.34981e-10

 Reference value :  2.60879e-08
 Reference value :  6.70799e-08
 Reference value :  1.10132e-07
No. of Data Rows : 60044

  Measurements for Transient Analysis

tphl                =  6.99066e-11 targ=  2.10214e-09 trig=  2.03223e-09
tplh                =  3.51664e-10 targ=  2.24484e-08 trig=  2.20967e-08
i_vdd_avg           =  -3.64712e-06 from=  5.00000e-09 to=  1.10002e-07
power_avg_uw        =  7.16342e+00


Total analysis time (seconds) = 0.786339

Total elapsed time (seconds) = 0.886 

Total DRAM available = 16384.000 MB.
DRAM currently available =  229.453 MB.
Maximum ngspice program size =   14.656 MB.
Current ngspice program size =   14.656 MB.

