
Note: No compatibility mode selected!


Circuit: NOR2 seed characterization sample 20316

Doing analysis at TEMP = 40.344400 and TNOM = 27.000000

Using SPARSE 1.3 as Direct Linear Solver

Initial Transient Solution
--------------------------

Node                                   Voltage
----                                   -------
vdd                                    1.83781
in                                           0
out                                    1.83781
pmid                                   1.83781
vin#branch                                   0
vdd#branch                        -4.10406e-12

 Reference value :  2.35535e-08
 Reference value :  7.07515e-08
 Reference value :  1.15516e-07
No. of Data Rows : 60044

  Measurements for Transient Analysis

tphl                =  8.01227e-11 targ=  2.14425e-09 trig=  2.06413e-09
tplh                =  2.46871e-10 targ=  2.24393e-08 trig=  2.21924e-08
i_vdd_avg           =  -2.64586e-06 from=  5.00000e-09 to=  1.10002e-07
power_avg_uw        =  4.86259e+00


Total analysis time (seconds) = 0.656663

Total elapsed time (seconds) = 0.767 

Total DRAM available = 16384.000 MB.
DRAM currently available =  202.609 MB.
Maximum ngspice program size =   14.156 MB.
Current ngspice program size =   14.156 MB.

