
Note: No compatibility mode selected!


Circuit: NOR2 seed characterization sample 20324

Doing analysis at TEMP = 34.506600 and TNOM = 27.000000

Using SPARSE 1.3 as Direct Linear Solver

Initial Transient Solution
--------------------------

Node                                   Voltage
----                                   -------
vdd                                    1.86492
in                                           0
out                                    1.86492
pmid                                   1.86492
vin#branch                                   0
vdd#branch                        -8.59194e-12

 Reference value :  2.09546e-08
 Reference value :  6.53261e-08
 Reference value :  1.07426e-07
No. of Data Rows : 60044

  Measurements for Transient Analysis

tphl                =  6.10910e-11 targ=  2.22487e-09 trig=  2.16378e-09
tplh                =  1.84461e-10 targ=  2.26758e-08 trig=  2.24913e-08
i_vdd_avg           =  -2.11922e-06 from=  5.00000e-09 to=  1.10000e-07
power_avg_uw        =  3.95218e+00


Total analysis time (seconds) = 0.736265

Total elapsed time (seconds) = 0.848 

Total DRAM available = 16384.000 MB.
DRAM currently available =  160.609 MB.
Maximum ngspice program size =   14.531 MB.
Current ngspice program size =   14.422 MB.

