
Note: No compatibility mode selected!


Circuit: NOR2 seed characterization sample 20320

Doing analysis at TEMP = -17.286000 and TNOM = 27.000000

Using SPARSE 1.3 as Direct Linear Solver

Initial Transient Solution
--------------------------

Node                                   Voltage
----                                   -------
vdd                                    1.70988
in                                           0
out                                    1.70988
pmid                                   1.70988
vin#branch                                   0
vdd#branch                        -4.05284e-12

 Reference value :  1.77443e-08
 Reference value :  5.76863e-08
 Reference value :  9.82823e-08
No. of Data Rows : 60047

  Measurements for Transient Analysis

tphl                =  4.30634e-11 targ=  2.06573e-09 trig=  2.02267e-09
tplh                =  2.41457e-10 targ=  2.23095e-08 trig=  2.20680e-08
i_vdd_avg           =  -2.68448e-06 from=  5.00000e-09 to=  1.10002e-07
power_avg_uw        =  4.59014e+00


Total analysis time (seconds) = 0.844285

Total elapsed time (seconds) = 0.976 

Total DRAM available = 16384.000 MB.
DRAM currently available =  196.172 MB.
Maximum ngspice program size =   15.719 MB.
Current ngspice program size =   15.719 MB.

