
Note: No compatibility mode selected!


Circuit: NOR2 seed characterization sample 20329

Doing analysis at TEMP = -15.039100 and TNOM = 27.000000

Using SPARSE 1.3 as Direct Linear Solver

Initial Transient Solution
--------------------------

Node                                   Voltage
----                                   -------
vdd                                    1.71807
in                                           0
out                                    1.71807
pmid                                   1.71807
vin#branch                                   0
vdd#branch                        -4.80753e-12

 Reference value :  2.56194e-08
 Reference value :  7.03614e-08
 Reference value :  1.08489e-07
No. of Data Rows : 60044

  Measurements for Transient Analysis

tphl                =  4.29633e-11 targ=  2.13906e-09 trig=  2.09609e-09
tplh                =  1.10929e-10 targ=  2.23992e-08 trig=  2.22883e-08
i_vdd_avg           =  -1.81742e-06 from=  5.00000e-09 to=  1.10001e-07
power_avg_uw        =  3.12245e+00


Total analysis time (seconds) = 0.813805

Total elapsed time (seconds) = 0.915 

Total DRAM available = 16384.000 MB.
DRAM currently available =  113.422 MB.
Maximum ngspice program size =   14.016 MB.
Current ngspice program size =   13.906 MB.

