
Note: No compatibility mode selected!


Circuit: NOR2 seed characterization sample 20332

Doing analysis at TEMP = 27.660900 and TNOM = 27.000000

Using SPARSE 1.3 as Direct Linear Solver

Initial Transient Solution
--------------------------

Node                                   Voltage
----                                   -------
vdd                                    1.71187
in                                           0
out                                    1.71187
pmid                                   1.71187
vin#branch                                   0
vdd#branch                        -2.79078e-11

 Reference value :  2.40699e-08
 Reference value :  6.81899e-08
 Reference value :  1.08130e-07
No. of Data Rows : 60047

  Measurements for Transient Analysis

tphl                =  3.58014e-11 targ=  2.05652e-09 trig=  2.02072e-09
tplh                =  1.68061e-10 targ=  2.22302e-08 trig=  2.20622e-08
i_vdd_avg           =  -1.44595e-06 from=  5.00000e-09 to=  1.10002e-07
power_avg_uw        =  2.47528e+00


Total analysis time (seconds) = 0.856438

Total elapsed time (seconds) = 0.952 

Total DRAM available = 16384.000 MB.
DRAM currently available =  191.812 MB.
Maximum ngspice program size =   13.906 MB.
Current ngspice program size =    7.891 MB.

