
Note: No compatibility mode selected!


Circuit: NOR2 seed characterization sample 20346

Doing analysis at TEMP = 99.549400 and TNOM = 27.000000

Using SPARSE 1.3 as Direct Linear Solver

Initial Transient Solution
--------------------------

Node                                   Voltage
----                                   -------
vdd                                    1.82354
in                                           0
out                                    1.82354
pmid                                   1.82354
vin#branch                                   0
vdd#branch                         -1.3524e-11

 Reference value :  2.09490e-08
 Reference value :  6.25809e-08
 Reference value :  1.07481e-07
No. of Data Rows : 60044

  Measurements for Transient Analysis

tphl                =  6.98877e-11 targ=  2.12687e-09 trig=  2.05698e-09
tplh                =  1.94225e-10 targ=  2.23652e-08 trig=  2.21709e-08
i_vdd_avg           =  -1.20674e-06 from=  5.00000e-09 to=  1.10001e-07
power_avg_uw        =  2.20054e+00


Total analysis time (seconds) = 0.71615

Total elapsed time (seconds) = 0.824 

Total DRAM available = 16384.000 MB.
DRAM currently available =  169.016 MB.
Maximum ngspice program size =   14.812 MB.
Current ngspice program size =   14.812 MB.

