
Note: No compatibility mode selected!


Circuit: NOR2 seed characterization sample 20340

Doing analysis at TEMP = 11.221800 and TNOM = 27.000000

Using SPARSE 1.3 as Direct Linear Solver

Initial Transient Solution
--------------------------

Node                                   Voltage
----                                   -------
vdd                                    1.76089
in                                           0
out                                    1.76089
pmid                                   1.76089
vin#branch                                   0
vdd#branch                         -3.5528e-12

 Reference value :  2.18802e-08
 Reference value :  6.95334e-08
 Reference value :  1.18345e-07
No. of Data Rows : 60047

  Measurements for Transient Analysis

tphl                =  2.51196e-10 targ=  2.47279e-09 trig=  2.22160e-09
tplh                =  1.11722e-09 targ=  2.37820e-08 trig=  2.26648e-08
i_vdd_avg           =  -3.45656e-06 from=  5.00000e-09 to=  1.10001e-07
power_avg_uw        =  6.08662e+00


Total analysis time (seconds) = 0.633477

Total elapsed time (seconds) = 0.761 

Total DRAM available = 16384.000 MB.
DRAM currently available =  177.328 MB.
Maximum ngspice program size =   16.922 MB.
Current ngspice program size =   16.922 MB.

