
Note: No compatibility mode selected!


Circuit: NOR2 seed characterization sample 20343

Doing analysis at TEMP = -6.671470 and TNOM = 27.000000

Using SPARSE 1.3 as Direct Linear Solver

Initial Transient Solution
--------------------------

Node                                   Voltage
----                                   -------
vdd                                    1.63796
in                                           0
out                                    1.63796
pmid                                   1.63796
vin#branch                                   0
vdd#branch                        -3.29943e-12

 Reference value :  2.75742e-08
 Reference value :  6.65662e-08
 Reference value :  1.04334e-07
No. of Data Rows : 60041

  Measurements for Transient Analysis

tphl                =  1.72668e-10 targ=  2.34697e-09 trig=  2.17430e-09
tplh                =  7.18916e-10 targ=  2.32418e-08 trig=  2.25229e-08
i_vdd_avg           =  -4.00858e-06 from=  5.00000e-09 to=  1.10000e-07
power_avg_uw        =  6.56590e+00


Total analysis time (seconds) = 0.84367

Total elapsed time (seconds) = 0.944 

Total DRAM available = 16384.000 MB.
DRAM currently available =  184.203 MB.
Maximum ngspice program size =   13.531 MB.
Current ngspice program size =   13.531 MB.

