
Note: No compatibility mode selected!


Circuit: NOR2 seed characterization sample 20347

Doing analysis at TEMP = 41.703300 and TNOM = 27.000000

Using SPARSE 1.3 as Direct Linear Solver

Initial Transient Solution
--------------------------

Node                                   Voltage
----                                   -------
vdd                                     1.6395
in                                           0
out                                     1.6395
pmid                                    1.6395
vin#branch                                   0
vdd#branch                        -9.92598e-11

 Reference value :  2.42901e-08
 Reference value :  6.84301e-08
 Reference value :  1.16668e-07
No. of Data Rows : 60044

  Measurements for Transient Analysis

tphl                =  8.44299e-11 targ=  2.22321e-09 trig=  2.13878e-09
tplh                =  2.06697e-10 targ=  2.26230e-08 trig=  2.24163e-08
i_vdd_avg           =  -3.13125e-06 from=  5.00000e-09 to=  1.10000e-07
power_avg_uw        =  5.13369e+00


Total analysis time (seconds) = 0.659292

Total elapsed time (seconds) = 0.760 

Total DRAM available = 16384.000 MB.
DRAM currently available =  153.734 MB.
Maximum ngspice program size =   13.094 MB.
Current ngspice program size =   12.906 MB.

