
Note: No compatibility mode selected!


Circuit: NOR2 seed characterization sample 20354

Doing analysis at TEMP = 36.548000 and TNOM = 27.000000

Using SPARSE 1.3 as Direct Linear Solver

Initial Transient Solution
--------------------------

Node                                   Voltage
----                                   -------
vdd                                    1.65454
in                                           0
out                                    1.65454
pmid                                   1.65454
vin#branch                                   0
vdd#branch                        -6.51688e-12

 Reference value :  2.29556e-08
 Reference value :  6.67376e-08
 Reference value :  1.08770e-07
No. of Data Rows : 60044

  Measurements for Transient Analysis

tphl                =  1.01250e-10 targ=  2.18641e-09 trig=  2.08516e-09
tplh                =  2.98858e-10 targ=  2.25543e-08 trig=  2.22555e-08
i_vdd_avg           =  -4.06225e-06 from=  5.00000e-09 to=  1.10002e-07
power_avg_uw        =  6.72116e+00


Total analysis time (seconds) = 0.713831

Total elapsed time (seconds) = 0.820 

Total DRAM available = 16384.000 MB.
DRAM currently available =  182.281 MB.
Maximum ngspice program size =   14.062 MB.
Current ngspice program size =   14.031 MB.

