
Note: No compatibility mode selected!


Circuit: NOR2 seed characterization sample 20356

Doing analysis at TEMP = 50.060400 and TNOM = 27.000000

Using SPARSE 1.3 as Direct Linear Solver

Initial Transient Solution
--------------------------

Node                                   Voltage
----                                   -------
vdd                                    1.69209
in                                           0
out                                    1.69209
pmid                                   1.69209
vin#branch                                   0
vdd#branch                         -1.4793e-10

 Reference value :  1.85803e-08
 Reference value :  5.74923e-08
 Reference value :  9.49543e-08
No. of Data Rows : 60047

  Measurements for Transient Analysis

tphl                =  1.48517e-10 targ=  2.36718e-09 trig=  2.21866e-09
tplh                =  3.52406e-10 targ=  2.30084e-08 trig=  2.26560e-08
i_vdd_avg           =  -6.17913e-06 from=  5.00000e-09 to=  1.10002e-07
power_avg_uw        =  1.04556e+01


Total analysis time (seconds) = 0.834104

Total elapsed time (seconds) = 0.962 

Total DRAM available = 16384.000 MB.
DRAM currently available =  161.125 MB.
Maximum ngspice program size =   15.141 MB.
Current ngspice program size =   15.141 MB.

