
Note: No compatibility mode selected!


Circuit: NOR2 seed characterization sample 20358

Doing analysis at TEMP = 72.242800 and TNOM = 27.000000

Using SPARSE 1.3 as Direct Linear Solver

Initial Transient Solution
--------------------------

Node                                   Voltage
----                                   -------
vdd                                    1.93149
in                                           0
out                                    1.93149
pmid                                   1.93149
vin#branch                                   0
vdd#branch                        -5.31785e-12

 Reference value :  2.06737e-08
 Reference value :  6.61184e-08
 Reference value :  1.09594e-07
No. of Data Rows : 60041

  Measurements for Transient Analysis

tphl                =  1.57996e-10 targ=  2.27535e-09 trig=  2.11735e-09
tplh                =  6.05743e-10 targ=  2.29578e-08 trig=  2.23521e-08
i_vdd_avg           =  -2.80521e-06 from=  5.00000e-09 to=  1.10000e-07
power_avg_uw        =  5.41824e+00


Total analysis time (seconds) = 0.700241

Total elapsed time (seconds) = 0.820 

Total DRAM available = 16384.000 MB.
DRAM currently available =  187.219 MB.
Maximum ngspice program size =   15.875 MB.
Current ngspice program size =   15.875 MB.

