
Note: No compatibility mode selected!


Circuit: NOR2 seed characterization sample 20353

Doing analysis at TEMP = 0.480405 and TNOM = 27.000000

Using SPARSE 1.3 as Direct Linear Solver

Initial Transient Solution
--------------------------

Node                                   Voltage
----                                   -------
vdd                                    1.67367
in                                           0
out                                    1.67367
pmid                                   1.67367
vin#branch                                   0
vdd#branch                        -6.27192e-12

 Reference value :  2.24617e-08
 Reference value :  6.50844e-08
 Reference value :  1.11696e-07
No. of Data Rows : 60041

  Measurements for Transient Analysis

tphl                =  7.76466e-11 targ=  2.25300e-09 trig=  2.17536e-09
tplh                =  2.11056e-10 targ=  2.27371e-08 trig=  2.25261e-08
i_vdd_avg           =  -1.57865e-06 from=  5.00000e-09 to=  1.10000e-07
power_avg_uw        =  2.64213e+00


Total analysis time (seconds) = 0.681841

Total elapsed time (seconds) = 0.788 

Total DRAM available = 16384.000 MB.
DRAM currently available =  175.078 MB.
Maximum ngspice program size =   14.109 MB.
Current ngspice program size =   14.000 MB.

