
Note: No compatibility mode selected!


Circuit: NOR2 seed characterization sample 20359

Doing analysis at TEMP = -4.305320 and TNOM = 27.000000

Using SPARSE 1.3 as Direct Linear Solver

Initial Transient Solution
--------------------------

Node                                   Voltage
----                                   -------
vdd                                    1.92184
in                                           0
out                                    1.92184
pmid                                   1.92184
vin#branch                                   0
vdd#branch                        -6.76063e-12

 Reference value :  2.24720e-08
 Reference value :  6.47820e-08
 Reference value :  1.10846e-07
No. of Data Rows : 60044

  Measurements for Transient Analysis

tphl                =  6.95358e-11 targ=  2.11877e-09 trig=  2.04924e-09
tplh                =  3.60594e-10 targ=  2.25083e-08 trig=  2.21477e-08
i_vdd_avg           =  -5.43927e-06 from=  5.00000e-09 to=  1.10002e-07
power_avg_uw        =  1.04534e+01


Total analysis time (seconds) = 0.689423

Total elapsed time (seconds) = 0.795 

Total DRAM available = 16384.000 MB.
DRAM currently available =  195.484 MB.
Maximum ngspice program size =   13.375 MB.
Current ngspice program size =   13.375 MB.

