
Note: No compatibility mode selected!


Circuit: XOR2 seed characterization sample 20368

Doing analysis at TEMP = 22.654900 and TNOM = 27.000000

Using SPARSE 1.3 as Direct Linear Solver

Initial Transient Solution
--------------------------

Node                                   Voltage
----                                   -------
vdd                                    1.92043
in                                           0
b                                      1.92043
abar                                   1.92043
bbar                               1.18784e-09
out                                    1.92043
vb#branch                                    0
vin#branch                         2.21065e-11
vdd#branch                        -4.88836e-11

 Reference value :  1.29771e-08
 Reference value :  3.93612e-08
 Reference value :  6.67352e-08
 Reference value :  9.30791e-08
 Reference value :  1.18009e-07
No. of Data Rows : 60044

  Measurements for Transient Analysis

tphl                =  1.99427e-10 targ=  2.36847e-09 trig=  2.16905e-09
tplh                =  1.93925e-10 targ=  2.27011e-08 trig=  2.25071e-08
i_vdd_avg           =  -6.57870e-06 from=  5.00000e-09 to=  1.10001e-07
power_avg_uw        =  1.26339e+01


Total analysis time (seconds) = 1.14903

Total elapsed time (seconds) = 1.267 

Total DRAM available = 16384.000 MB.
DRAM currently available =  175.703 MB.
Maximum ngspice program size =   15.531 MB.
Current ngspice program size =   15.531 MB.

