
Note: No compatibility mode selected!


Circuit: XOR2 seed characterization sample 20367

Doing analysis at TEMP = 12.237800 and TNOM = 27.000000

Using SPARSE 1.3 as Direct Linear Solver

Initial Transient Solution
--------------------------

Node                                   Voltage
----                                   -------
vdd                                     1.7108
in                                           0
b                                       1.7108
abar                                    1.7108
bbar                               1.45089e-09
out                                     1.7108
vb#branch                                    0
vin#branch                         1.73988e-12
vdd#branch                        -1.03588e-11

 Reference value :  1.28665e-08
 Reference value :  4.06540e-08
 Reference value :  6.82920e-08
 Reference value :  9.65725e-08
No. of Data Rows : 60047

  Measurements for Transient Analysis

tphl                =  2.87421e-10 targ=  2.51017e-09 trig=  2.22275e-09
tplh                =  3.39906e-10 targ=  2.30081e-08 trig=  2.26682e-08
i_vdd_avg           =  -2.48062e-06 from=  5.00000e-09 to=  1.10002e-07
power_avg_uw        =  4.24384e+00


Total analysis time (seconds) = 1.1473

Total elapsed time (seconds) = 1.254 

Total DRAM available = 16384.000 MB.
DRAM currently available =  178.656 MB.
Maximum ngspice program size =   14.984 MB.
Current ngspice program size =   14.984 MB.

