
Note: No compatibility mode selected!


Circuit: XOR2 seed characterization sample 20362

Doing analysis at TEMP = -5.525850 and TNOM = 27.000000

Using SPARSE 1.3 as Direct Linear Solver

Initial Transient Solution
--------------------------

Node                                   Voltage
----                                   -------
vdd                                    1.86915
in                                           0
b                                      1.86915
abar                                   1.86915
bbar                               8.54547e-10
out                                    1.86915
vb#branch                                    0
vin#branch                         3.79041e-12
vdd#branch                        -1.42481e-11

 Reference value :  1.01628e-08
 Reference value :  3.46026e-08
 Reference value :  5.93748e-08
 Reference value :  8.58168e-08
 Reference value :  1.10811e-07
No. of Data Rows : 60044

  Measurements for Transient Analysis

tphl                =  1.81512e-10 targ=  2.32941e-09 trig=  2.14790e-09
tplh                =  2.04982e-10 targ=  2.26487e-08 trig=  2.24437e-08
i_vdd_avg           =  -5.05718e-06 from=  5.00000e-09 to=  1.10001e-07
power_avg_uw        =  9.45262e+00


Total analysis time (seconds) = 1.2188

Total elapsed time (seconds) = 1.405 

Total DRAM available = 16384.000 MB.
DRAM currently available =  158.047 MB.
Maximum ngspice program size =   15.562 MB.
Current ngspice program size =   14.062 MB.

