
Note: No compatibility mode selected!


Circuit: XOR2 seed characterization sample 20364

Doing analysis at TEMP = -11.988300 and TNOM = 27.000000

Using SPARSE 1.3 as Direct Linear Solver

Initial Transient Solution
--------------------------

Node                                   Voltage
----                                   -------
vdd                                    1.76704
in                                           0
b                                      1.76704
abar                                   1.76704
bbar                               9.57069e-10
out                                    1.76704
vb#branch                                    0
vin#branch                         1.77859e-12
vdd#branch                        -1.06654e-11

 Reference value :  1.44099e-08
 Reference value :  4.05307e-08
 Reference value :  6.48407e-08
 Reference value :  9.00759e-08
 Reference value :  1.15697e-07
No. of Data Rows : 60041

  Measurements for Transient Analysis

tphl                =  2.90644e-10 targ=  2.53508e-09 trig=  2.24443e-09
tplh                =  4.77740e-10 targ=  2.32110e-08 trig=  2.27333e-08
i_vdd_avg           =  -3.97879e-06 from=  5.00000e-09 to=  1.10001e-07
power_avg_uw        =  7.03068e+00


Total analysis time (seconds) = 1.22616

Total elapsed time (seconds) = 1.329 

Total DRAM available = 16384.000 MB.
DRAM currently available =  169.844 MB.
Maximum ngspice program size =   14.703 MB.
Current ngspice program size =   14.703 MB.

