
Note: No compatibility mode selected!


Circuit: XOR2 seed characterization sample 20366

Doing analysis at TEMP = 21.321600 and TNOM = 27.000000

Using SPARSE 1.3 as Direct Linear Solver

Initial Transient Solution
--------------------------

Node                                   Voltage
----                                   -------
vdd                                    1.94847
in                                           0
b                                      1.94847
abar                                   1.94847
bbar                               2.11203e-09
out                                    1.94847
vb#branch                                    0
vin#branch                         2.39271e-12
vdd#branch                        -1.24611e-11

 Reference value :  1.41296e-08
 Reference value :  4.08142e-08
 Reference value :  6.84022e-08
 Reference value :  9.63996e-08
No. of Data Rows : 60041

  Measurements for Transient Analysis

tphl                =  4.00338e-10 targ=  2.44563e-09 trig=  2.04529e-09
tplh                =  4.13680e-10 targ=  2.25495e-08 trig=  2.21359e-08
i_vdd_avg           =  -6.90837e-06 from=  5.00000e-09 to=  1.10000e-07
power_avg_uw        =  1.34608e+01


Total analysis time (seconds) = 1.09518

Total elapsed time (seconds) = 1.204 

Total DRAM available = 16384.000 MB.
DRAM currently available =  154.312 MB.
Maximum ngspice program size =   14.484 MB.
Current ngspice program size =   14.484 MB.

