
Note: No compatibility mode selected!


Circuit: XOR2 seed characterization sample 20377

Doing analysis at TEMP = 67.082500 and TNOM = 27.000000

Using SPARSE 1.3 as Direct Linear Solver

Initial Transient Solution
--------------------------

Node                                   Voltage
----                                   -------
vdd                                    1.83375
in                                           0
b                                      1.83375
abar                                   1.83375
bbar                               1.49294e-08
out                                    1.83375
vb#branch                                    0
vin#branch                         1.14512e-10
vdd#branch                        -2.52571e-10

 Reference value :  1.49618e-08
 Reference value :  4.20398e-08
 Reference value :  6.69947e-08
 Reference value :  9.35018e-08
No. of Data Rows : 60041

  Measurements for Transient Analysis

tphl                =  2.42842e-10 targ=  2.26026e-09 trig=  2.01742e-09
tplh                =  2.38993e-10 targ=  2.22913e-08 trig=  2.20523e-08
i_vdd_avg           =  -4.64965e-06 from=  5.00000e-09 to=  1.10001e-07
power_avg_uw        =  8.52629e+00


Total analysis time (seconds) = 1.1347

Total elapsed time (seconds) = 1.242 

Total DRAM available = 16384.000 MB.
DRAM currently available =  201.031 MB.
Maximum ngspice program size =   14.016 MB.
Current ngspice program size =   14.016 MB.

