
Note: No compatibility mode selected!


Circuit: XOR2 seed characterization sample 20370

Doing analysis at TEMP = 28.511300 and TNOM = 27.000000

Using SPARSE 1.3 as Direct Linear Solver

Initial Transient Solution
--------------------------

Node                                   Voltage
----                                   -------
vdd                                    1.90935
in                                           0
b                                      1.90935
abar                                   1.90935
bbar                               1.04615e-09
out                                    1.90935
vb#branch                                    0
vin#branch                         2.05794e-12
vdd#branch                        -1.17213e-11

 Reference value :  1.44475e-08
 Reference value :  4.07628e-08
 Reference value :  6.70408e-08
 Reference value :  9.53155e-08
No. of Data Rows : 60071

  Measurements for Transient Analysis

tphl                =  2.65696e-10 targ=  2.27103e-09 trig=  2.00534e-09
tplh                =  2.73453e-10 targ=  2.22895e-08 trig=  2.20160e-08
i_vdd_avg           =  -7.58568e-06 from=  5.00000e-09 to=  1.10001e-07
power_avg_uw        =  1.44837e+01


Total analysis time (seconds) = 1.1071

Total elapsed time (seconds) = 1.218 

Total DRAM available = 16384.000 MB.
DRAM currently available =  179.938 MB.
Maximum ngspice program size =   13.797 MB.
Current ngspice program size =   13.797 MB.

