
Note: No compatibility mode selected!


Circuit: XOR2 seed characterization sample 20376

Doing analysis at TEMP = 20.183300 and TNOM = 27.000000

Using SPARSE 1.3 as Direct Linear Solver

Initial Transient Solution
--------------------------

Node                                   Voltage
----                                   -------
vdd                                    1.74081
in                                           0
b                                      1.74081
abar                                   1.74081
bbar                               1.77753e-09
out                                    1.74081
vb#branch                                    0
vin#branch                         1.78332e-12
vdd#branch                        -1.05561e-11

 Reference value :  1.30618e-08
 Reference value :  3.77726e-08
 Reference value :  6.51546e-08
 Reference value :  8.96338e-08
 Reference value :  1.17261e-07
No. of Data Rows : 60041

  Measurements for Transient Analysis

tphl                =  5.14943e-10 targ=  2.61733e-09 trig=  2.10239e-09
tplh                =  7.32966e-10 targ=  2.30401e-08 trig=  2.23072e-08
i_vdd_avg           =  -6.43725e-06 from=  5.00000e-09 to=  1.10001e-07
power_avg_uw        =  1.12060e+01


Total analysis time (seconds) = 1.16454

Total elapsed time (seconds) = 1.281 

Total DRAM available = 16384.000 MB.
DRAM currently available =  174.688 MB.
Maximum ngspice program size =   13.844 MB.
Current ngspice program size =   13.844 MB.

