
Note: No compatibility mode selected!


Circuit: XOR2 seed characterization sample 20372

Doing analysis at TEMP = 48.034300 and TNOM = 27.000000

Using SPARSE 1.3 as Direct Linear Solver

Initial Transient Solution
--------------------------

Node                                   Voltage
----                                   -------
vdd                                    1.65141
in                                           0
b                                      1.65141
abar                                   1.65141
bbar                               2.06476e-09
out                                    1.65141
vb#branch                                    0
vin#branch                         4.64271e-12
vdd#branch                        -1.56826e-11

 Reference value :  1.15331e-08
 Reference value :  3.52672e-08
 Reference value :  6.15431e-08
 Reference value :  8.68271e-08
 Reference value :  1.10913e-07
No. of Data Rows : 60044

  Measurements for Transient Analysis

tphl                =  4.68341e-10 targ=  2.64940e-09 trig=  2.18105e-09
tplh                =  5.04818e-10 targ=  2.30480e-08 trig=  2.25432e-08
i_vdd_avg           =  -5.35686e-06 from=  5.00000e-09 to=  1.10001e-07
power_avg_uw        =  8.84637e+00


Total analysis time (seconds) = 1.29519

Total elapsed time (seconds) = 1.401 

Total DRAM available = 16384.000 MB.
DRAM currently available =  188.391 MB.
Maximum ngspice program size =   14.875 MB.
Current ngspice program size =   14.875 MB.

