
Note: No compatibility mode selected!


Circuit: XOR2 seed characterization sample 20371

Doing analysis at TEMP = 63.627300 and TNOM = 27.000000

Using SPARSE 1.3 as Direct Linear Solver

Initial Transient Solution
--------------------------

Node                                   Voltage
----                                   -------
vdd                                    1.71368
in                                           0
b                                      1.71368
abar                                   1.71368
bbar                               1.53997e-08
out                                    1.71368
vb#branch                                    0
vin#branch                         2.96964e-11
vdd#branch                        -5.96201e-11

 Reference value :  1.34746e-08
 Reference value :  3.85082e-08
 Reference value :  6.65682e-08
 Reference value :  9.39246e-08
No. of Data Rows : 60044

  Measurements for Transient Analysis

tphl                =  2.02867e-10 targ=  2.27967e-09 trig=  2.07680e-09
tplh                =  3.03004e-10 targ=  2.25334e-08 trig=  2.22304e-08
i_vdd_avg           =  -7.12025e-07 from=  5.00000e-09 to=  1.10000e-07
power_avg_uw        =  1.22018e+00


Total analysis time (seconds) = 1.12553

Total elapsed time (seconds) = 1.233 

Total DRAM available = 16384.000 MB.
DRAM currently available =  169.391 MB.
Maximum ngspice program size =   14.609 MB.
Current ngspice program size =   14.609 MB.

