
Note: No compatibility mode selected!


Circuit: XOR2 seed characterization sample 20379

Doing analysis at TEMP = 84.066200 and TNOM = 27.000000

Using SPARSE 1.3 as Direct Linear Solver

Initial Transient Solution
--------------------------

Node                                   Voltage
----                                   -------
vdd                                    1.72572
in                                           0
b                                      1.72572
abar                                   1.72572
bbar                               6.11067e-09
out                                    1.72572
vb#branch                                    0
vin#branch                         2.54164e-12
vdd#branch                        -1.18597e-11

 Reference value :  1.35865e-08
 Reference value :  4.14219e-08
 Reference value :  6.85399e-08
 Reference value :  9.48205e-08
No. of Data Rows : 60047

  Measurements for Transient Analysis

tphl                =  4.50973e-10 targ=  2.65971e-09 trig=  2.20873e-09
tplh                =  6.38979e-10 targ=  2.32652e-08 trig=  2.26262e-08
i_vdd_avg           =  -1.55528e-06 from=  5.00000e-09 to=  1.10002e-07
power_avg_uw        =  2.68397e+00


Total analysis time (seconds) = 1.13208

Total elapsed time (seconds) = 1.239 

Total DRAM available = 16384.000 MB.
DRAM currently available =  197.422 MB.
Maximum ngspice program size =   14.422 MB.
Current ngspice program size =   14.422 MB.

