
Note: No compatibility mode selected!


Circuit: XOR2 seed characterization sample 20384

Doing analysis at TEMP = 78.815100 and TNOM = 27.000000

Using SPARSE 1.3 as Direct Linear Solver

Initial Transient Solution
--------------------------

Node                                   Voltage
----                                   -------
vdd                                    1.93282
in                                           0
b                                      1.93282
abar                                   1.93282
bbar                               3.41486e-09
out                                    1.93282
vb#branch                                    0
vin#branch                         2.12903e-11
vdd#branch                        -5.24294e-11

 Reference value :  1.31248e-08
 Reference value :  4.09267e-08
 Reference value :  6.81007e-08
 Reference value :  9.34168e-08
 Reference value :  1.16185e-07
No. of Data Rows : 60044

  Measurements for Transient Analysis

tphl                =  3.60839e-10 targ=  2.46075e-09 trig=  2.09991e-09
tplh                =  4.92772e-10 targ=  2.27925e-08 trig=  2.22997e-08
i_vdd_avg           =  -6.20952e-06 from=  5.00000e-09 to=  1.10001e-07
power_avg_uw        =  1.20019e+01


Total analysis time (seconds) = 1.25232

Total elapsed time (seconds) = 1.359 

Total DRAM available = 16384.000 MB.
DRAM currently available =  183.500 MB.
Maximum ngspice program size =   14.609 MB.
Current ngspice program size =   12.906 MB.

