
Note: No compatibility mode selected!


Circuit: XOR2 seed characterization sample 20392

Doing analysis at TEMP = 88.535800 and TNOM = 27.000000

Using SPARSE 1.3 as Direct Linear Solver

Initial Transient Solution
--------------------------

Node                                   Voltage
----                                   -------
vdd                                     1.6758
in                                           0
b                                       1.6758
abar                                    1.6758
bbar                               4.89411e-08
out                                     1.6758
vb#branch                                    0
vin#branch                          2.7785e-10
vdd#branch                        -4.50378e-10

 Reference value :  1.44211e-08
 Reference value :  4.23230e-08
 Reference value :  6.61392e-08
 Reference value :  9.19671e-08
 Reference value :  1.19531e-07
No. of Data Rows : 60044

  Measurements for Transient Analysis

tphl                =  3.44173e-10 targ=  2.54423e-09 trig=  2.20005e-09
tplh                =  4.37703e-10 targ=  2.30379e-08 trig=  2.26002e-08
i_vdd_avg           =  -3.13173e-06 from=  5.00000e-09 to=  1.10001e-07
power_avg_uw        =  5.24815e+00


Total analysis time (seconds) = 1.15916

Total elapsed time (seconds) = 1.266 

Total DRAM available = 16384.000 MB.
DRAM currently available =  183.406 MB.
Maximum ngspice program size =   14.094 MB.
Current ngspice program size =   14.094 MB.

