
Note: No compatibility mode selected!


Circuit: XOR2 seed characterization sample 20391

Doing analysis at TEMP = -10.851000 and TNOM = 27.000000

Using SPARSE 1.3 as Direct Linear Solver

Initial Transient Solution
--------------------------

Node                                   Voltage
----                                   -------
vdd                                      1.857
in                                           0
b                                        1.857
abar                                     1.857
bbar                               3.79897e-09
out                                      1.857
vb#branch                                    0
vin#branch                         1.86723e-12
vdd#branch                        -1.12025e-11

 Reference value :  1.40881e-08
 Reference value :  4.12851e-08
 Reference value :  6.82371e-08
 Reference value :  9.54381e-08
No. of Data Rows : 60047

  Measurements for Transient Analysis

tphl                =  3.70245e-10 targ=  2.58577e-09 trig=  2.21553e-09
tplh                =  4.95436e-10 targ=  2.31420e-08 trig=  2.26466e-08
i_vdd_avg           =  -1.86519e-06 from=  5.00000e-09 to=  1.10001e-07
power_avg_uw        =  3.46366e+00


Total analysis time (seconds) = 1.11216

Total elapsed time (seconds) = 1.221 

Total DRAM available = 16384.000 MB.
DRAM currently available =  157.141 MB.
Maximum ngspice program size =   14.125 MB.
Current ngspice program size =   14.125 MB.

