
Note: No compatibility mode selected!


Circuit: XOR2 seed characterization sample 20393

Doing analysis at TEMP = 68.045500 and TNOM = 27.000000

Using SPARSE 1.3 as Direct Linear Solver

Initial Transient Solution
--------------------------

Node                                   Voltage
----                                   -------
vdd                                    1.77393
in                                           0
b                                      1.77393
abar                                   1.77393
bbar                               1.73805e-09
out                                    1.77393
vb#branch                                    0
vin#branch                          3.0474e-11
vdd#branch                        -6.34238e-11

 Reference value :  1.52914e-08
 Reference value :  4.24754e-08
 Reference value :  6.87199e-08
 Reference value :  9.61634e-08
No. of Data Rows : 60044

  Measurements for Transient Analysis

tphl                =  3.11742e-10 targ=  2.53196e-09 trig=  2.22021e-09
tplh                =  3.70402e-10 targ=  2.30310e-08 trig=  2.26606e-08
i_vdd_avg           =  -6.74322e-06 from=  5.00000e-09 to=  1.10002e-07
power_avg_uw        =  1.19620e+01


Total analysis time (seconds) = 1.10597

Total elapsed time (seconds) = 1.208 

Total DRAM available = 16384.000 MB.
DRAM currently available =  180.953 MB.
Maximum ngspice program size =   13.859 MB.
Current ngspice program size =   13.719 MB.

