
Note: No compatibility mode selected!


Circuit: XOR2 seed characterization sample 20408

Doing analysis at TEMP = 6.611580 and TNOM = 27.000000

Using SPARSE 1.3 as Direct Linear Solver

Initial Transient Solution
--------------------------

Node                                   Voltage
----                                   -------
vdd                                    1.79244
in                                           0
b                                      1.79244
abar                                   1.79244
bbar                               1.07879e-09
out                                    1.79244
vb#branch                                    0
vin#branch                          1.9811e-12
vdd#branch                        -1.11979e-11

 Reference value :  1.53226e-08
 Reference value :  4.27606e-08
 Reference value :  6.80042e-08
 Reference value :  9.40746e-08
No. of Data Rows : 60044

  Measurements for Transient Analysis

tphl                =  2.95765e-10 targ=  2.44056e-09 trig=  2.14480e-09
tplh                =  3.09248e-10 targ=  2.27436e-08 trig=  2.24344e-08
i_vdd_avg           =  -6.28382e-06 from=  5.00000e-09 to=  1.10000e-07
power_avg_uw        =  1.12634e+01


Total analysis time (seconds) = 1.12576

Total elapsed time (seconds) = 1.226 

Total DRAM available = 16384.000 MB.
DRAM currently available =  146.766 MB.
Maximum ngspice program size =   14.609 MB.
Current ngspice program size =   14.609 MB.

