
Note: No compatibility mode selected!


Circuit: XOR2 seed characterization sample 20402

Doing analysis at TEMP = 89.239800 and TNOM = 27.000000

Using SPARSE 1.3 as Direct Linear Solver

Initial Transient Solution
--------------------------

Node                                   Voltage
----                                   -------
vdd                                    1.85405
in                                           0
b                                      1.85405
abar                                   1.85405
bbar                               9.13706e-09
out                                    1.85405
vb#branch                                    0
vin#branch                          1.5468e-11
vdd#branch                        -3.77641e-11

 Reference value :  1.49847e-08
 Reference value :  4.12763e-08
 Reference value :  6.58803e-08
 Reference value :  9.13227e-08
 Reference value :  1.18110e-07
No. of Data Rows : 60044

  Measurements for Transient Analysis

tphl                =  5.79388e-10 targ=  2.79221e-09 trig=  2.21283e-09
tplh                =  6.48302e-10 targ=  2.32868e-08 trig=  2.26385e-08
i_vdd_avg           =  -3.58166e-06 from=  5.00000e-09 to=  1.10000e-07
power_avg_uw        =  6.64058e+00


Total analysis time (seconds) = 1.17013

Total elapsed time (seconds) = 1.271 

Total DRAM available = 16384.000 MB.
DRAM currently available =  193.750 MB.
Maximum ngspice program size =   13.812 MB.
Current ngspice program size =   13.812 MB.

