
Note: No compatibility mode selected!


Circuit: XOR2 seed characterization sample 20400

Doing analysis at TEMP = 33.677700 and TNOM = 27.000000

Using SPARSE 1.3 as Direct Linear Solver

Initial Transient Solution
--------------------------

Node                                   Voltage
----                                   -------
vdd                                    1.76488
in                                           0
b                                      1.76488
abar                                   1.76488
bbar                               1.52703e-09
out                                    1.76488
vb#branch                                    0
vin#branch                         1.89167e-12
vdd#branch                        -1.08569e-11

 Reference value :  1.59291e-08
 Reference value :  4.19012e-08
 Reference value :  7.08232e-08
 Reference value :  9.61211e-08
No. of Data Rows : 60044

  Measurements for Transient Analysis

tphl                =  2.96738e-10 targ=  2.45979e-09 trig=  2.16305e-09
tplh                =  4.03284e-10 targ=  2.28924e-08 trig=  2.24892e-08
i_vdd_avg           =  -3.50742e-06 from=  5.00000e-09 to=  1.10001e-07
power_avg_uw        =  6.19017e+00


Total analysis time (seconds) = 1.20488

Total elapsed time (seconds) = 1.301 

Total DRAM available = 16384.000 MB.
DRAM currently available =  185.203 MB.
Maximum ngspice program size =   13.672 MB.
Current ngspice program size =   13.672 MB.

