
Note: No compatibility mode selected!


Circuit: XOR2 seed characterization sample 20405

Doing analysis at TEMP = 70.059800 and TNOM = 27.000000

Using SPARSE 1.3 as Direct Linear Solver

Initial Transient Solution
--------------------------

Node                                   Voltage
----                                   -------
vdd                                    1.70478
in                                           0
b                                      1.70478
abar                                   1.70478
bbar                               2.49591e-09
out                                    1.70478
vb#branch                                    0
vin#branch                         2.06236e-11
vdd#branch                        -4.24312e-11

 Reference value :  1.34591e-08
 Reference value :  4.21310e-08
 Reference value :  6.76373e-08
 Reference value :  9.38791e-08
No. of Data Rows : 60044

  Measurements for Transient Analysis

tphl                =  1.76560e-10 targ=  2.28962e-09 trig=  2.11306e-09
tplh                =  2.17321e-10 targ=  2.25565e-08 trig=  2.23392e-08
i_vdd_avg           =  -2.04487e-06 from=  5.00000e-09 to=  1.10001e-07
power_avg_uw        =  3.48605e+00


Total analysis time (seconds) = 1.14314

Total elapsed time (seconds) = 1.290 

Total DRAM available = 16384.000 MB.
DRAM currently available =  190.703 MB.
Maximum ngspice program size =   16.156 MB.
Current ngspice program size =   16.156 MB.

