
Note: No compatibility mode selected!


Circuit: XOR2 seed characterization sample 20412

Doing analysis at TEMP = 90.161700 and TNOM = 27.000000

Using SPARSE 1.3 as Direct Linear Solver

Initial Transient Solution
--------------------------

Node                                   Voltage
----                                   -------
vdd                                    1.77998
in                                           0
b                                      1.77998
abar                                   1.77998
bbar                               2.85877e-09
out                                    1.77998
vb#branch                                    0
vin#branch                         7.55585e-12
vdd#branch                        -1.97728e-11

 Reference value :  1.54087e-08
 Reference value :  4.26387e-08
 Reference value :  7.02205e-08
 Reference value :  9.72587e-08
No. of Data Rows : 60044

  Measurements for Transient Analysis

tphl                =  5.62060e-10 targ=  2.71492e-09 trig=  2.15287e-09
tplh                =  6.44970e-10 targ=  2.31036e-08 trig=  2.24586e-08
i_vdd_avg           =  -5.77274e-06 from=  5.00000e-09 to=  1.10000e-07
power_avg_uw        =  1.02754e+01


Total analysis time (seconds) = 1.10323

Total elapsed time (seconds) = 1.199 

Total DRAM available = 16384.000 MB.
DRAM currently available =  199.078 MB.
Maximum ngspice program size =   14.000 MB.
Current ngspice program size =   14.000 MB.

