
Note: No compatibility mode selected!


Circuit: XOR2 seed characterization sample 20417

Doing analysis at TEMP = 9.852080 and TNOM = 27.000000

Using SPARSE 1.3 as Direct Linear Solver

Initial Transient Solution
--------------------------

Node                                   Voltage
----                                   -------
vdd                                     1.8964
in                                           0
b                                       1.8964
abar                                    1.8964
bbar                               9.53351e-10
out                                     1.8964
vb#branch                                    0
vin#branch                          2.2747e-12
vdd#branch                        -1.20409e-11

 Reference value :  1.20515e-08
 Reference value :  3.66201e-08
 Reference value :  6.31361e-08
 Reference value :  9.00415e-08
 Reference value :  1.16254e-07
No. of Data Rows : 60041

  Measurements for Transient Analysis

tphl                =  2.36451e-10 targ=  2.42872e-09 trig=  2.19227e-09
tplh                =  2.41785e-10 targ=  2.28186e-08 trig=  2.25768e-08
i_vdd_avg           =  -5.12156e-06 from=  5.00000e-09 to=  1.10000e-07
power_avg_uw        =  9.71252e+00


Total analysis time (seconds) = 1.20865

Total elapsed time (seconds) = 1.366 

Total DRAM available = 16384.000 MB.
DRAM currently available =  208.172 MB.
Maximum ngspice program size =   18.969 MB.
Current ngspice program size =   10.656 MB.

