
Note: No compatibility mode selected!


Circuit: XOR2 seed characterization sample 20414

Doing analysis at TEMP = 10.491400 and TNOM = 27.000000

Using SPARSE 1.3 as Direct Linear Solver

Initial Transient Solution
--------------------------

Node                                   Voltage
----                                   -------
vdd                                    1.80532
in                                           0
b                                      1.80532
abar                                   1.80532
bbar                               8.83375e-10
out                                    1.80532
vb#branch                                    0
vin#branch                         2.10119e-12
vdd#branch                        -1.15466e-11

 Reference value :  1.41509e-08
 Reference value :  3.96369e-08
 Reference value :  6.51309e-08
 Reference value :  8.89089e-08
 Reference value :  1.12717e-07
No. of Data Rows : 60044

  Measurements for Transient Analysis

tphl                =  1.61285e-10 targ=  2.25925e-09 trig=  2.09797e-09
tplh                =  2.05329e-10 targ=  2.24992e-08 trig=  2.22939e-08
i_vdd_avg           =  -3.72506e-06 from=  5.00000e-09 to=  1.10001e-07
power_avg_uw        =  6.72493e+00


Total analysis time (seconds) = 1.22339

Total elapsed time (seconds) = 1.340 

Total DRAM available = 16384.000 MB.
DRAM currently available =  167.438 MB.
Maximum ngspice program size =   15.219 MB.
Current ngspice program size =   15.219 MB.

