
Note: No compatibility mode selected!


Circuit: XOR2 seed characterization sample 20410

Doing analysis at TEMP = 99.570800 and TNOM = 27.000000

Using SPARSE 1.3 as Direct Linear Solver

Initial Transient Solution
--------------------------

Node                                   Voltage
----                                   -------
vdd                                    1.81027
in                                           0
b                                      1.81027
abar                                   1.81027
bbar                               6.48706e-08
out                                    1.81027
vb#branch                                    0
vin#branch                         6.01688e-10
vdd#branch                        -9.57887e-10

 Reference value :  1.16096e-08
 Reference value :  3.77382e-08
 Reference value :  6.51582e-08
 Reference value :  8.95776e-08
 Reference value :  1.15338e-07
No. of Data Rows : 60041

  Measurements for Transient Analysis

tphl                =  2.86470e-10 targ=  2.36977e-09 trig=  2.08330e-09
tplh                =  3.52296e-10 targ=  2.26022e-08 trig=  2.22499e-08
i_vdd_avg           =  -3.78168e-06 from=  5.00000e-09 to=  1.10000e-07
power_avg_uw        =  6.84587e+00


Total analysis time (seconds) = 1.18675

Total elapsed time (seconds) = 1.305 

Total DRAM available = 16384.000 MB.
DRAM currently available =  189.281 MB.
Maximum ngspice program size =   14.734 MB.
Current ngspice program size =   14.734 MB.

