
Note: No compatibility mode selected!


Circuit: XOR2 seed characterization sample 20413

Doing analysis at TEMP = 56.433300 and TNOM = 27.000000

Using SPARSE 1.3 as Direct Linear Solver

Initial Transient Solution
--------------------------

Node                                   Voltage
----                                   -------
vdd                                    1.66481
in                                           0
b                                      1.66481
abar                                   1.66481
bbar                               6.51448e-09
out                                    1.66481
vb#branch                                    0
vin#branch                         7.79581e-11
vdd#branch                        -1.59728e-10

 Reference value :  1.50008e-08
 Reference value :  4.10206e-08
 Reference value :  6.66946e-08
 Reference value :  9.36288e-08
No. of Data Rows : 60044

  Measurements for Transient Analysis

tphl                =  3.13088e-10 targ=  2.35999e-09 trig=  2.04690e-09
tplh                =  2.94572e-10 targ=  2.24353e-08 trig=  2.21407e-08
i_vdd_avg           =  -6.49579e-06 from=  5.00000e-09 to=  1.10001e-07
power_avg_uw        =  1.08143e+01


Total analysis time (seconds) = 1.14537

Total elapsed time (seconds) = 1.245 

Total DRAM available = 16384.000 MB.
DRAM currently available =  179.828 MB.
Maximum ngspice program size =   13.594 MB.
Current ngspice program size =   13.578 MB.

