
Note: No compatibility mode selected!


Circuit: XOR2 seed characterization sample 20418

Doing analysis at TEMP = 3.273250 and TNOM = 27.000000

Using SPARSE 1.3 as Direct Linear Solver

Initial Transient Solution
--------------------------

Node                                   Voltage
----                                   -------
vdd                                    1.78826
in                                           0
b                                      1.78826
abar                                   1.78826
bbar                               1.27858e-09
out                                    1.78826
vb#branch                                    0
vin#branch                         1.80552e-12
vdd#branch                        -1.08016e-11

 Reference value :  1.10281e-08
 Reference value :  3.46432e-08
 Reference value :  5.89321e-08
 Reference value :  8.31661e-08
 Reference value :  1.06829e-07
No. of Data Rows : 60047

  Measurements for Transient Analysis

tphl                =  4.19810e-10 targ=  2.66037e-09 trig=  2.24056e-09
tplh                =  4.93902e-10 targ=  2.32156e-08 trig=  2.27217e-08
i_vdd_avg           =  -5.70055e-06 from=  5.00000e-09 to=  1.10001e-07
power_avg_uw        =  1.01941e+01


Total analysis time (seconds) = 1.31456

Total elapsed time (seconds) = 1.490 

Total DRAM available = 16384.000 MB.
DRAM currently available =  196.328 MB.
Maximum ngspice program size =   16.594 MB.
Current ngspice program size =   10.844 MB.

