
Note: No compatibility mode selected!


Circuit: XOR2 seed characterization sample 20420

Doing analysis at TEMP = -15.435800 and TNOM = 27.000000

Using SPARSE 1.3 as Direct Linear Solver

Initial Transient Solution
--------------------------

Node                                   Voltage
----                                   -------
vdd                                    1.68935
in                                           0
b                                      1.68935
abar                                   1.68935
bbar                               1.07468e-09
out                                    1.68935
vb#branch                                    0
vin#branch                          1.7217e-12
vdd#branch                        -1.02321e-11

 Reference value :  1.41118e-08
 Reference value :  4.03505e-08
 Reference value :  6.66245e-08
 Reference value :  9.46978e-08
No. of Data Rows : 60041

  Measurements for Transient Analysis

tphl                =  2.73067e-10 targ=  2.32645e-09 trig=  2.05338e-09
tplh                =  3.75810e-10 targ=  2.25360e-08 trig=  2.21601e-08
i_vdd_avg           =  -5.39815e-06 from=  5.00000e-09 to=  1.10001e-07
power_avg_uw        =  9.11937e+00


Total analysis time (seconds) = 1.11157

Total elapsed time (seconds) = 1.224 

Total DRAM available = 16384.000 MB.
DRAM currently available =  179.000 MB.
Maximum ngspice program size =   15.109 MB.
Current ngspice program size =   15.109 MB.

