
Note: No compatibility mode selected!


Circuit: XOR2 seed characterization sample 20429

Doing analysis at TEMP = 60.025300 and TNOM = 27.000000

Using SPARSE 1.3 as Direct Linear Solver

Initial Transient Solution
--------------------------

Node                                   Voltage
----                                   -------
vdd                                    1.76125
in                                           0
b                                      1.76125
abar                                   1.76125
bbar                                1.9652e-09
out                                    1.76125
vb#branch                                    0
vin#branch                         1.19635e-11
vdd#branch                        -3.05673e-11

 Reference value :  1.18465e-08
 Reference value :  3.68300e-08
 Reference value :  6.44420e-08
 Reference value :  9.24265e-08
 Reference value :  1.14568e-07
No. of Data Rows : 60044

  Measurements for Transient Analysis

tphl                =  3.08030e-10 targ=  2.45679e-09 trig=  2.14876e-09
tplh                =  3.47922e-10 targ=  2.27942e-08 trig=  2.24463e-08
i_vdd_avg           =  -4.91994e-06 from=  5.00000e-09 to=  1.10000e-07
power_avg_uw        =  8.66524e+00


Total analysis time (seconds) = 1.359

Total elapsed time (seconds) = 1.481 

Total DRAM available = 16384.000 MB.
DRAM currently available =  193.578 MB.
Maximum ngspice program size =   14.812 MB.
Current ngspice program size =   14.812 MB.

