
Note: No compatibility mode selected!


Circuit: XOR2 seed characterization sample 20426

Doing analysis at TEMP = 50.680400 and TNOM = 27.000000

Using SPARSE 1.3 as Direct Linear Solver

Initial Transient Solution
--------------------------

Node                                   Voltage
----                                   -------
vdd                                    1.83811
in                                           0
b                                      1.83811
abar                                   1.83811
bbar                               3.15285e-09
out                                    1.83811
vb#branch                                    0
vin#branch                         4.20605e-12
vdd#branch                        -1.51126e-11

 Reference value :  1.43968e-08
 Reference value :  3.89286e-08
 Reference value :  6.30966e-08
 Reference value :  8.97628e-08
 Reference value :  1.17515e-07
No. of Data Rows : 60044

  Measurements for Transient Analysis

tphl                =  3.74562e-10 targ=  2.53145e-09 trig=  2.15689e-09
tplh                =  3.90275e-10 targ=  2.28609e-08 trig=  2.24707e-08
i_vdd_avg           =  -3.52025e-06 from=  5.00000e-09 to=  1.10001e-07
power_avg_uw        =  6.47062e+00


Total analysis time (seconds) = 1.16884

Total elapsed time (seconds) = 1.277 

Total DRAM available = 16384.000 MB.
DRAM currently available =  184.266 MB.
Maximum ngspice program size =   15.141 MB.
Current ngspice program size =   15.141 MB.

