
Note: No compatibility mode selected!


Circuit: XOR2 seed characterization sample 20430

Doing analysis at TEMP = 2.355950 and TNOM = 27.000000

Using SPARSE 1.3 as Direct Linear Solver

Initial Transient Solution
--------------------------

Node                                   Voltage
----                                   -------
vdd                                     1.8902
in                                           0
b                                       1.8902
abar                                    1.8902
bbar                               2.87165e-09
out                                     1.8902
vb#branch                                    0
vin#branch                         1.90212e-12
vdd#branch                        -1.14052e-11

 Reference value :  1.01167e-08
 Reference value :  3.22743e-08
 Reference value :  5.56007e-08
 Reference value :  7.85303e-08
 Reference value :  1.04504e-07
No. of Data Rows : 60044

  Measurements for Transient Analysis

tphl                =  1.84287e-10 targ=  2.21012e-09 trig=  2.02583e-09
tplh                =  2.02653e-10 targ=  2.22802e-08 trig=  2.20775e-08
i_vdd_avg           =  -1.65526e-06 from=  5.00000e-09 to=  1.10000e-07
power_avg_uw        =  3.12877e+00


Total analysis time (seconds) = 1.32515

Total elapsed time (seconds) = 1.459 

Total DRAM available = 16384.000 MB.
DRAM currently available =  209.000 MB.
Maximum ngspice program size =   18.703 MB.
Current ngspice program size =   16.531 MB.

