
Note: No compatibility mode selected!


Circuit: XOR2 seed characterization sample 20432

Doing analysis at TEMP = 31.840500 and TNOM = 27.000000

Using SPARSE 1.3 as Direct Linear Solver

Initial Transient Solution
--------------------------

Node                                   Voltage
----                                   -------
vdd                                    1.89567
in                                           0
b                                      1.89567
abar                                   1.89567
bbar                                 1.143e-09
out                                    1.89567
vb#branch                                    0
vin#branch                         3.84565e-12
vdd#branch                        -1.52902e-11

 Reference value :  1.55346e-08
 Reference value :  4.00802e-08
 Reference value :  6.38882e-08
 Reference value :  8.76686e-08
 Reference value :  1.12352e-07
No. of Data Rows : 60044

  Measurements for Transient Analysis

tphl                =  2.56154e-10 targ=  2.29494e-09 trig=  2.03879e-09
tplh                =  3.55722e-10 targ=  2.24721e-08 trig=  2.21164e-08
i_vdd_avg           =  -7.39850e-06 from=  5.00000e-09 to=  1.10000e-07
power_avg_uw        =  1.40251e+01


Total analysis time (seconds) = 1.28955

Total elapsed time (seconds) = 1.388 

Total DRAM available = 16384.000 MB.
DRAM currently available =  216.609 MB.
Maximum ngspice program size =   14.641 MB.
Current ngspice program size =   14.641 MB.

