
Note: No compatibility mode selected!


Circuit: XOR2 seed characterization sample 20439

Doing analysis at TEMP = 18.145300 and TNOM = 27.000000

Using SPARSE 1.3 as Direct Linear Solver

Initial Transient Solution
--------------------------

Node                                   Voltage
----                                   -------
vdd                                    1.66604
in                                           0
b                                      1.66604
abar                                   1.66604
bbar                               4.13792e-09
out                                    1.66604
vb#branch                                    0
vin#branch                         1.68327e-12
vdd#branch                        -1.00678e-11

 Reference value :  1.36116e-08
 Reference value :  4.01701e-08
 Reference value :  6.47281e-08
 Reference value :  9.11176e-08
 Reference value :  1.16692e-07
No. of Data Rows : 60041

  Measurements for Transient Analysis

tphl                =  4.17517e-10 targ=  2.64180e-09 trig=  2.22429e-09
tplh                =  5.72911e-10 targ=  2.32458e-08 trig=  2.26729e-08
i_vdd_avg           =  -1.52424e-06 from=  5.00000e-09 to=  1.10000e-07
power_avg_uw        =  2.53945e+00


Total analysis time (seconds) = 1.18623

Total elapsed time (seconds) = 1.285 

Total DRAM available = 16384.000 MB.
DRAM currently available =  193.484 MB.
Maximum ngspice program size =   15.375 MB.
Current ngspice program size =   15.375 MB.

