
Note: No compatibility mode selected!


Circuit: XOR2 seed characterization sample 20431

Doing analysis at TEMP = 54.889800 and TNOM = 27.000000

Using SPARSE 1.3 as Direct Linear Solver

Initial Transient Solution
--------------------------

Node                                   Voltage
----                                   -------
vdd                                    1.94395
in                                           0
b                                      1.94395
abar                                   1.94395
bbar                               4.52143e-09
out                                    1.94395
vb#branch                                    0
vin#branch                         1.80871e-10
vdd#branch                        -2.80254e-10

 Reference value :  1.08654e-08
 Reference value :  3.72778e-08
 Reference value :  6.22534e-08
 Reference value :  8.51714e-08
 Reference value :  1.12142e-07
No. of Data Rows : 60044

  Measurements for Transient Analysis

tphl                =  1.76837e-10 targ=  2.35002e-09 trig=  2.17319e-09
tplh                =  2.25633e-10 targ=  2.27452e-08 trig=  2.25196e-08
i_vdd_avg           =  -4.43166e-06 from=  5.00000e-09 to=  1.10002e-07
power_avg_uw        =  8.61493e+00


Total analysis time (seconds) = 1.33876

Total elapsed time (seconds) = 1.456 

Total DRAM available = 16384.000 MB.
DRAM currently available =  214.750 MB.
Maximum ngspice program size =   14.156 MB.
Current ngspice program size =    8.906 MB.

