
Note: No compatibility mode selected!


Circuit: XOR2 seed characterization sample 20440

Doing analysis at TEMP = 65.845700 and TNOM = 27.000000

Using SPARSE 1.3 as Direct Linear Solver

Initial Transient Solution
--------------------------

Node                                   Voltage
----                                   -------
vdd                                    1.78653
in                                           0
b                                      1.78653
abar                                   1.78653
bbar                               1.16471e-08
out                                    1.78653
vb#branch                                    0
vin#branch                         2.97289e-10
vdd#branch                        -5.68945e-10

 Reference value :  1.52279e-08
 Reference value :  3.94488e-08
 Reference value :  6.38008e-08
 Reference value :  9.02259e-08
 Reference value :  1.16033e-07
No. of Data Rows : 60041

  Measurements for Transient Analysis

tphl                =  1.29736e-10 targ=  2.19719e-09 trig=  2.06746e-09
tplh                =  1.41720e-10 targ=  2.23441e-08 trig=  2.22024e-08
i_vdd_avg           =  -3.76244e-06 from=  5.00000e-09 to=  1.10001e-07
power_avg_uw        =  6.72170e+00


Total analysis time (seconds) = 1.19381

Total elapsed time (seconds) = 1.292 

Total DRAM available = 16384.000 MB.
DRAM currently available =  168.844 MB.
Maximum ngspice program size =   14.578 MB.
Current ngspice program size =   14.578 MB.

