
Note: No compatibility mode selected!


Circuit: XOR2 seed characterization sample 20443

Doing analysis at TEMP = 23.862700 and TNOM = 27.000000

Using SPARSE 1.3 as Direct Linear Solver

Initial Transient Solution
--------------------------

Node                                   Voltage
----                                   -------
vdd                                    1.66967
in                                           0
b                                      1.66967
abar                                   1.66967
bbar                               1.00601e-09
out                                    1.66967
vb#branch                                    0
vin#branch                         1.86353e-11
vdd#branch                        -4.26295e-11

 Reference value :  1.62693e-08
 Reference value :  4.33273e-08
 Reference value :  6.70537e-08
 Reference value :  9.19113e-08
 Reference value :  1.19999e-07
No. of Data Rows : 60044

  Measurements for Transient Analysis

tphl                =  1.76538e-10 targ=  2.23171e-09 trig=  2.05517e-09
tplh                =  2.15229e-10 targ=  2.23807e-08 trig=  2.21655e-08
i_vdd_avg           =  -5.74472e-06 from=  5.00000e-09 to=  1.10002e-07
power_avg_uw        =  9.59178e+00


Total analysis time (seconds) = 1.15641

Total elapsed time (seconds) = 1.254 

Total DRAM available = 16384.000 MB.
DRAM currently available =  177.938 MB.
Maximum ngspice program size =   13.844 MB.
Current ngspice program size =   13.844 MB.

