
Note: No compatibility mode selected!


Circuit: XOR2 seed characterization sample 20442

Doing analysis at TEMP = 53.931800 and TNOM = 27.000000

Using SPARSE 1.3 as Direct Linear Solver

Initial Transient Solution
--------------------------

Node                                   Voltage
----                                   -------
vdd                                    1.75127
in                                           0
b                                      1.75127
abar                                   1.75127
bbar                               5.89293e-09
out                                    1.75127
vb#branch                                    0
vin#branch                         1.84977e-12
vdd#branch                        -1.08258e-11

 Reference value :  1.26942e-08
 Reference value :  3.69155e-08
 Reference value :  6.55835e-08
 Reference value :  9.20162e-08
 Reference value :  1.15661e-07
No. of Data Rows : 60047

  Measurements for Transient Analysis

tphl                =  1.15215e-09 targ=  3.38077e-09 trig=  2.22862e-09
tplh                =  1.26619e-09 targ=  2.39521e-08 trig=  2.26859e-08
i_vdd_avg           =  -5.00285e-06 from=  5.00000e-09 to=  1.10001e-07
power_avg_uw        =  8.76133e+00


Total analysis time (seconds) = 1.18166

Total elapsed time (seconds) = 1.302 

Total DRAM available = 16384.000 MB.
DRAM currently available =  155.859 MB.
Maximum ngspice program size =   14.141 MB.
Current ngspice program size =   14.141 MB.

