
Note: No compatibility mode selected!


Circuit: XOR2 seed characterization sample 20459

Doing analysis at TEMP = 41.453700 and TNOM = 27.000000

Using SPARSE 1.3 as Direct Linear Solver

Initial Transient Solution
--------------------------

Node                                   Voltage
----                                   -------
vdd                                    1.72476
in                                           0
b                                      1.72476
abar                                   1.72476
bbar                               1.07342e-09
out                                    1.72476
vb#branch                                    0
vin#branch                         5.87711e-12
vdd#branch                        -1.80007e-11

 Reference value :  1.41197e-08
 Reference value :  3.69004e-08
 Reference value :  6.28644e-08
 Reference value :  8.57337e-08
 Reference value :  1.07742e-07
No. of Data Rows : 60041

  Measurements for Transient Analysis

tphl                =  1.51190e-10 targ=  2.18353e-09 trig=  2.03234e-09
tplh                =  2.42947e-10 targ=  2.23400e-08 trig=  2.20970e-08
i_vdd_avg           =  -3.62940e-06 from=  5.00000e-09 to=  1.10000e-07
power_avg_uw        =  6.25985e+00


Total analysis time (seconds) = 1.42879

Total elapsed time (seconds) = 1.527 

Total DRAM available = 16384.000 MB.
DRAM currently available =  208.500 MB.
Maximum ngspice program size =   14.844 MB.
Current ngspice program size =   11.469 MB.

