
Note: No compatibility mode selected!


Circuit: XOR2 seed characterization sample 20451

Doing analysis at TEMP = -1.084380 and TNOM = 27.000000

Using SPARSE 1.3 as Direct Linear Solver

Initial Transient Solution
--------------------------

Node                                   Voltage
----                                   -------
vdd                                    1.65518
in                                           0
b                                      1.65518
abar                                   1.65518
bbar                               8.38914e-09
out                                    1.65518
vb#branch                                    0
vin#branch                         1.66538e-12
vdd#branch                        -9.99173e-12

 Reference value :  1.34306e-08
 Reference value :  4.18483e-08
 Reference value :  6.61183e-08
 Reference value :  9.44186e-08
No. of Data Rows : 60044

  Measurements for Transient Analysis

tphl                =  1.25918e-09 targ=  3.33999e-09 trig=  2.08081e-09
tplh                =  1.97871e-09 targ=  2.42212e-08 trig=  2.22424e-08
i_vdd_avg           =  -3.18700e-06 from=  5.00000e-09 to=  1.10000e-07
power_avg_uw        =  5.27506e+00


Total analysis time (seconds) = 1.13752

Total elapsed time (seconds) = 1.246 

Total DRAM available = 16384.000 MB.
DRAM currently available =  182.234 MB.
Maximum ngspice program size =   13.453 MB.
Current ngspice program size =   13.453 MB.

