
Note: No compatibility mode selected!


Circuit: XOR2 seed characterization sample 20457

Doing analysis at TEMP = 58.569800 and TNOM = 27.000000

Using SPARSE 1.3 as Direct Linear Solver

Initial Transient Solution
--------------------------

Node                                   Voltage
----                                   -------
vdd                                    1.97837
in                                           0
b                                      1.97837
abar                                   1.97837
bbar                               1.57011e-09
out                                    1.97837
vb#branch                                    0
vin#branch                         3.32267e-12
vdd#branch                        -1.39229e-11

 Reference value :  1.21339e-08
 Reference value :  3.75168e-08
 Reference value :  6.28988e-08
 Reference value :  8.87519e-08
 Reference value :  1.13295e-07
No. of Data Rows : 60041

  Measurements for Transient Analysis

tphl                =  2.23794e-10 targ=  2.42523e-09 trig=  2.20144e-09
tplh                =  2.46679e-10 targ=  2.28510e-08 trig=  2.26043e-08
i_vdd_avg           =  -2.74562e-06 from=  5.00000e-09 to=  1.10001e-07
power_avg_uw        =  5.43185e+00


Total analysis time (seconds) = 1.21299

Total elapsed time (seconds) = 1.343 

Total DRAM available = 16384.000 MB.
DRAM currently available =  197.031 MB.
Maximum ngspice program size =   16.281 MB.
Current ngspice program size =   16.281 MB.

