
Note: No compatibility mode selected!


Circuit: XOR2 seed characterization sample 20455

Doing analysis at TEMP = 51.389000 and TNOM = 27.000000

Using SPARSE 1.3 as Direct Linear Solver

Initial Transient Solution
--------------------------

Node                                   Voltage
----                                   -------
vdd                                    1.96245
in                                           0
b                                      1.96245
abar                                   1.96245
bbar                               4.17736e-09
out                                    1.96245
vb#branch                                    0
vin#branch                         4.29845e-11
vdd#branch                        -9.05062e-11

 Reference value :  1.39497e-08
 Reference value :  3.68205e-08
 Reference value :  6.07137e-08
 Reference value :  8.39977e-08
 Reference value :  1.05792e-07
No. of Data Rows : 60041

  Measurements for Transient Analysis

tphl                =  3.23387e-10 targ=  2.40376e-09 trig=  2.08037e-09
tplh                =  4.06076e-10 targ=  2.26472e-08 trig=  2.22411e-08
i_vdd_avg           =  -6.26131e-06 from=  5.00000e-09 to=  1.10000e-07
power_avg_uw        =  1.22875e+01


Total analysis time (seconds) = 1.58019

Total elapsed time (seconds) = 1.679 

Total DRAM available = 16384.000 MB.
DRAM currently available =  197.547 MB.
Maximum ngspice program size =   15.172 MB.
Current ngspice program size =   13.781 MB.

