
Note: No compatibility mode selected!


Circuit: XOR2 seed characterization sample 20466

Doing analysis at TEMP = 1.041870 and TNOM = 27.000000

Using SPARSE 1.3 as Direct Linear Solver

Initial Transient Solution
--------------------------

Node                                   Voltage
----                                   -------
vdd                                    1.62557
in                                           0
b                                      1.62557
abar                                   1.62557
bbar                               6.64499e-09
out                                    1.62557
vb#branch                                    0
vin#branch                          1.6364e-12
vdd#branch                        -9.81503e-12

 Reference value :  1.31918e-08
 Reference value :  3.62386e-08
 Reference value :  6.05578e-08
 Reference value :  8.68218e-08
 Reference value :  1.13079e-07
No. of Data Rows : 60041

  Measurements for Transient Analysis

tphl                =  1.35356e-09 targ=  3.54997e-09 trig=  2.19641e-09
tplh                =  2.37772e-09 targ=  2.49669e-08 trig=  2.25892e-08
i_vdd_avg           =  -3.72897e-06 from=  5.00000e-09 to=  1.10001e-07
power_avg_uw        =  6.06171e+00


Total analysis time (seconds) = 1.22807

Total elapsed time (seconds) = 1.336 

Total DRAM available = 16384.000 MB.
DRAM currently available =  206.766 MB.
Maximum ngspice program size =   13.938 MB.
Current ngspice program size =   13.938 MB.

