
Note: No compatibility mode selected!


Circuit: XOR2 seed characterization sample 20464

Doing analysis at TEMP = 59.721700 and TNOM = 27.000000

Using SPARSE 1.3 as Direct Linear Solver

Initial Transient Solution
--------------------------

Node                                   Voltage
----                                   -------
vdd                                    1.71699
in                                           0
b                                      1.71699
abar                                   1.71699
bbar                               5.56117e-09
out                                    1.71699
vb#branch                                    0
vin#branch                         1.37173e-10
vdd#branch                        -2.45524e-10

 Reference value :  1.32488e-08
 Reference value :  3.68867e-08
 Reference value :  6.09568e-08
 Reference value :  8.50348e-08
 Reference value :  1.09691e-07
No. of Data Rows : 60044

  Measurements for Transient Analysis

tphl                =  1.64433e-10 targ=  2.20535e-09 trig=  2.04092e-09
tplh                =  2.35993e-10 targ=  2.23588e-08 trig=  2.21228e-08
i_vdd_avg           =  -3.51344e-06 from=  5.00000e-09 to=  1.10001e-07
power_avg_uw        =  6.03254e+00


Total analysis time (seconds) = 1.29209

Total elapsed time (seconds) = 1.399 

Total DRAM available = 16384.000 MB.
DRAM currently available =  223.703 MB.
Maximum ngspice program size =   14.625 MB.
Current ngspice program size =   14.625 MB.

