
Note: No compatibility mode selected!


Circuit: XOR2 seed characterization sample 20468

Doing analysis at TEMP = 16.386200 and TNOM = 27.000000

Using SPARSE 1.3 as Direct Linear Solver

Initial Transient Solution
--------------------------

Node                                   Voltage
----                                   -------
vdd                                    1.92931
in                                           0
b                                      1.92931
abar                                   1.92931
bbar                               2.03436e-09
out                                    1.92931
vb#branch                                    0
vin#branch                          2.2266e-12
vdd#branch                        -1.20194e-11

 Reference value :  9.34068e-09
 Reference value :  3.08344e-08
 Reference value :  5.60567e-08
 Reference value :  8.03464e-08
 Reference value :  1.03586e-07
No. of Data Rows : 60044

  Measurements for Transient Analysis

tphl                =  2.35273e-10 targ=  2.43011e-09 trig=  2.19484e-09
tplh                =  2.27003e-10 targ=  2.28115e-08 trig=  2.25845e-08
i_vdd_avg           =  -2.42453e-06 from=  5.00000e-09 to=  1.10000e-07
power_avg_uw        =  4.67767e+00


Total analysis time (seconds) = 1.40508

Total elapsed time (seconds) = 1.532 

Total DRAM available = 16384.000 MB.
DRAM currently available =  172.000 MB.
Maximum ngspice program size =   15.594 MB.
Current ngspice program size =   15.594 MB.

