
Note: No compatibility mode selected!


Circuit: XOR2 seed characterization sample 20469

Doing analysis at TEMP = -18.692700 and TNOM = 27.000000

Using SPARSE 1.3 as Direct Linear Solver

Initial Transient Solution
--------------------------

Node                                   Voltage
----                                   -------
vdd                                    1.84739
in                                           0
b                                      1.84739
abar                                   1.84739
bbar                               1.91254e-09
out                                    1.84739
vb#branch                                    0
vin#branch                         1.85777e-12
vdd#branch                         -1.1145e-11

 Reference value :  1.36076e-08
 Reference value :  3.83616e-08
 Reference value :  6.47595e-08
 Reference value :  9.08628e-08
 Reference value :  1.16369e-07
No. of Data Rows : 60049

  Measurements for Transient Analysis

tphl                =  2.61167e-10 targ=  2.26845e-09 trig=  2.00728e-09
tplh                =  3.28142e-10 targ=  2.23500e-08 trig=  2.20218e-08
i_vdd_avg           =  -3.47594e-06 from=  5.00000e-09 to=  1.10001e-07
power_avg_uw        =  6.42141e+00


Total analysis time (seconds) = 1.18713

Total elapsed time (seconds) = 1.290 

Total DRAM available = 16384.000 MB.
DRAM currently available =  168.781 MB.
Maximum ngspice program size =   14.188 MB.
Current ngspice program size =   14.188 MB.

