
Note: No compatibility mode selected!


Circuit: XOR2 seed characterization sample 20462

Doing analysis at TEMP = 98.525400 and TNOM = 27.000000

Using SPARSE 1.3 as Direct Linear Solver

Initial Transient Solution
--------------------------

Node                                   Voltage
----                                   -------
vdd                                    1.76073
in                                           0
b                                      1.76073
abar                                   1.76073
bbar                               8.60922e-09
out                                    1.76073
vb#branch                                    0
vin#branch                         1.17142e-10
vdd#branch                        -2.08908e-10

 Reference value :  1.30621e-08
 Reference value :  4.04092e-08
 Reference value :  6.56132e-08
 Reference value :  9.13961e-08
 Reference value :  1.15421e-07
No. of Data Rows : 60047

  Measurements for Transient Analysis

tphl                =  2.41448e-10 targ=  2.40900e-09 trig=  2.16755e-09
tplh                =  2.39282e-10 targ=  2.27419e-08 trig=  2.25026e-08
i_vdd_avg           =  -3.27613e-06 from=  5.00000e-09 to=  1.10001e-07
power_avg_uw        =  5.76838e+00


Total analysis time (seconds) = 1.21118

Total elapsed time (seconds) = 1.318 

Total DRAM available = 16384.000 MB.
DRAM currently available =  202.578 MB.
Maximum ngspice program size =   13.391 MB.
Current ngspice program size =   13.391 MB.

