
Note: No compatibility mode selected!


Circuit: XOR2 seed characterization sample 20475

Doing analysis at TEMP = -3.435570 and TNOM = 27.000000

Using SPARSE 1.3 as Direct Linear Solver

Initial Transient Solution
--------------------------

Node                                   Voltage
----                                   -------
vdd                                    1.84824
in                                           0
b                                      1.84824
abar                                   1.84824
bbar                                1.6861e-09
out                                    1.84824
vb#branch                                    0
vin#branch                         1.86119e-12
vdd#branch                        -1.11542e-11

 Reference value :  1.26330e-08
 Reference value :  3.73470e-08
 Reference value :  6.05910e-08
 Reference value :  8.50130e-08
 Reference value :  1.13159e-07
No. of Data Rows : 60044

  Measurements for Transient Analysis

tphl                =  3.77136e-10 targ=  2.52015e-09 trig=  2.14301e-09
tplh                =  6.05852e-10 targ=  2.30349e-08 trig=  2.24290e-08
i_vdd_avg           =  -4.87712e-06 from=  5.00000e-09 to=  1.10001e-07
power_avg_uw        =  9.01410e+00


Total analysis time (seconds) = 1.23298

Total elapsed time (seconds) = 1.335 

Total DRAM available = 16384.000 MB.
DRAM currently available =  212.656 MB.
Maximum ngspice program size =   14.469 MB.
Current ngspice program size =   14.469 MB.

