
Note: No compatibility mode selected!


Circuit: XOR2 seed characterization sample 20478

Doing analysis at TEMP = 45.653600 and TNOM = 27.000000

Using SPARSE 1.3 as Direct Linear Solver

Initial Transient Solution
--------------------------

Node                                   Voltage
----                                   -------
vdd                                    1.96103
in                                           0
b                                      1.96103
abar                                   1.96103
bbar                               2.30598e-09
out                                    1.96103
vb#branch                                    0
vin#branch                         2.12451e-12
vdd#branch                        -1.21158e-11

 Reference value :  1.78290e-08
 Reference value :  4.75730e-08
 Reference value :  7.65571e-08
 Reference value :  1.05817e-07
No. of Data Rows : 60044

  Measurements for Transient Analysis

tphl                =  2.00344e-10 targ=  2.26236e-09 trig=  2.06202e-09
tplh                =  1.93400e-10 targ=  2.23794e-08 trig=  2.21860e-08
i_vdd_avg           =  -2.35563e-06 from=  5.00000e-09 to=  1.10001e-07
power_avg_uw        =  4.61946e+00


Total analysis time (seconds) = 1.02249

Total elapsed time (seconds) = 1.114 

Total DRAM available = 16384.000 MB.
DRAM currently available =  213.422 MB.
Maximum ngspice program size =   14.781 MB.
Current ngspice program size =   14.781 MB.

