
Note: No compatibility mode selected!


Circuit: XOR2 seed characterization sample 20476

Doing analysis at TEMP = 46.821400 and TNOM = 27.000000

Using SPARSE 1.3 as Direct Linear Solver

Initial Transient Solution
--------------------------

Node                                   Voltage
----                                   -------
vdd                                    1.95686
in                                           0
b                                      1.95686
abar                                   1.95686
bbar                               3.75034e-09
out                                    1.95686
vb#branch                                    0
vin#branch                         7.35217e-11
vdd#branch                        -1.71149e-10

 Reference value :  1.64629e-08
 Reference value :  4.23329e-08
 Reference value :  7.21469e-08
 Reference value :  1.00351e-07
No. of Data Rows : 60044

  Measurements for Transient Analysis

tphl                =  1.94371e-10 targ=  2.28934e-09 trig=  2.09497e-09
tplh                =  1.86220e-10 targ=  2.24711e-08 trig=  2.22849e-08
i_vdd_avg           =  -6.70499e-06 from=  5.00000e-09 to=  1.10001e-07
power_avg_uw        =  1.31207e+01


Total analysis time (seconds) = 1.06783

Total elapsed time (seconds) = 1.167 

Total DRAM available = 16384.000 MB.
DRAM currently available =  192.844 MB.
Maximum ngspice program size =   14.953 MB.
Current ngspice program size =   14.953 MB.

