
Note: No compatibility mode selected!


Circuit: INV seed characterization sample 4320014

Doing analysis at TEMP = 78.741500 and TNOM = 27.000000

Using SPARSE 1.3 as Direct Linear Solver

Initial Transient Solution
--------------------------

Node                                   Voltage
----                                   -------
vdd                                    1.74167
in                                           0
out                                    1.74167
vin#branch                                   0
vdd#branch                        -2.97058e-11

 Reference value :  7.44005e-08
No. of Data Rows : 60044

  Measurements for Transient Analysis

tphl                =  1.55743e-10 targ=  2.19061e-09 trig=  2.03487e-09
tplh                =  1.55767e-10 targ=  2.22604e-08 trig=  2.21046e-08
i_vdd_avg           =  -4.38587e-06 from=  5.00000e-09 to=  1.10000e-07
power_avg_uw        =  7.63874e+00


Total analysis time (seconds) = 0.291827

Total elapsed time (seconds) = 0.361 

Total DRAM available = 16384.000 MB.
DRAM currently available =  127.406 MB.
Maximum ngspice program size =   12.562 MB.
Current ngspice program size =   11.922 MB.

