
Note: No compatibility mode selected!


Circuit: NAND2 seed characterization sample 4320028

Doing analysis at TEMP = 51.181300 and TNOM = 27.000000

Using SPARSE 1.3 as Direct Linear Solver

Initial Transient Solution
--------------------------

Node                                   Voltage
----                                   -------
vdd                                    1.89292
in                                           0
out                                    1.89292
nmid                                 0.0501154
vin#branch                                   0
vdd#branch                        -2.83835e-12

 Reference value :  4.84004e-08
 Reference value :  1.11264e-07
No. of Data Rows : 60047

  Measurements for Transient Analysis

tphl                =  2.95411e-10 targ=  2.42710e-09 trig=  2.13169e-09
tplh                =  1.54235e-10 targ=  2.25493e-08 trig=  2.23951e-08
i_vdd_avg           =  -4.86789e-06 from=  5.00000e-09 to=  1.10002e-07
power_avg_uw        =  9.21452e+00


Total analysis time (seconds) = 0.460229

Total elapsed time (seconds) = 0.528 

Total DRAM available = 16384.000 MB.
DRAM currently available =  153.359 MB.
Maximum ngspice program size =   12.562 MB.
Current ngspice program size =   11.688 MB.

