
Note: No compatibility mode selected!


Circuit: NOR2 seed characterization sample 4320048

Doing analysis at TEMP = 18.661500 and TNOM = 27.000000

Using SPARSE 1.3 as Direct Linear Solver

Initial Transient Solution
--------------------------

Node                                   Voltage
----                                   -------
vdd                                    1.94753
in                                           0
out                                    1.94753
pmid                                   1.94753
vin#branch                                   0
vdd#branch                        -4.87169e-12

 Reference value :  4.15147e-08
 Reference value :  9.71058e-08
No. of Data Rows : 60041

  Measurements for Transient Analysis

tphl                =  9.46472e-11 targ=  2.15507e-09 trig=  2.06042e-09
tplh                =  3.06819e-10 targ=  2.24881e-08 trig=  2.21813e-08
i_vdd_avg           =  -5.68427e-06 from=  5.00000e-09 to=  1.10001e-07
power_avg_uw        =  1.10703e+01


Total analysis time (seconds) = 0.524856

Total elapsed time (seconds) = 0.601 

Total DRAM available = 16384.000 MB.
DRAM currently available =  172.062 MB.
Maximum ngspice program size =   12.562 MB.
Current ngspice program size =   11.656 MB.

