
Note: No compatibility mode selected!


Circuit: NOR2 seed characterization sample 4320045

Doing analysis at TEMP = 56.606500 and TNOM = 27.000000

Using SPARSE 1.3 as Direct Linear Solver

Initial Transient Solution
--------------------------

Node                                   Voltage
----                                   -------
vdd                                    1.71508
in                                           0
out                                    1.71508
pmid                                   1.71508
vin#branch                                   0
vdd#branch                        -2.19889e-11

 Reference value :  4.18606e-08
 Reference value :  9.77268e-08
No. of Data Rows : 60044

  Measurements for Transient Analysis

tphl                =  1.51855e-10 targ=  2.38875e-09 trig=  2.23689e-09
tplh                =  4.58964e-10 targ=  2.31696e-08 trig=  2.27107e-08
i_vdd_avg           =  -4.82113e-06 from=  5.00000e-09 to=  1.10001e-07
power_avg_uw        =  8.26863e+00


Total analysis time (seconds) = 0.522344

Total elapsed time (seconds) = 0.598 

Total DRAM available = 16384.000 MB.
DRAM currently available =  172.062 MB.
Maximum ngspice program size =   12.562 MB.
Current ngspice program size =   11.656 MB.

