
Note: No compatibility mode selected!


Circuit: NAND2 seed characterization sample 4320046

Doing analysis at TEMP = 0.529631 and TNOM = 27.000000

Using SPARSE 1.3 as Direct Linear Solver

Initial Transient Solution
--------------------------

Node                                   Voltage
----                                   -------
vdd                                    1.63776
in                                           0
out                                    1.63776
nmid                                 0.0140331
vin#branch                                   0
vdd#branch                        -1.69005e-12

 Reference value :  4.21791e-08
 Reference value :  9.92551e-08
No. of Data Rows : 60044

  Measurements for Transient Analysis

tphl                =  2.80024e-10 targ=  2.30807e-09 trig=  2.02805e-09
tplh                =  1.14820e-10 targ=  2.21990e-08 trig=  2.20841e-08
i_vdd_avg           =  -4.50433e-06 from=  5.00000e-09 to=  1.10001e-07
power_avg_uw        =  7.37701e+00


Total analysis time (seconds) = 0.510597

Total elapsed time (seconds) = 0.588 

Total DRAM available = 16384.000 MB.
DRAM currently available =  172.062 MB.
Maximum ngspice program size =   12.562 MB.
Current ngspice program size =   11.656 MB.

