
Note: No compatibility mode selected!


Circuit: XOR2 seed characterization sample 4320019

Doing analysis at TEMP = 73.424600 and TNOM = 27.000000

Using SPARSE 1.3 as Direct Linear Solver

Initial Transient Solution
--------------------------

Node                                   Voltage
----                                   -------
vdd                                    1.89351
in                                           0
b                                      1.89351
abar                                   1.89351
bbar                               2.44031e-09
out                                    1.89351
vb#branch                                    0
vin#branch                         3.03408e-11
vdd#branch                        -6.20294e-11

 Reference value :  2.57142e-08
 Reference value :  6.01996e-08
 Reference value :  9.60776e-08
No. of Data Rows : 60041

  Measurements for Transient Analysis

tphl                =  1.33230e-10 targ=  2.17053e-09 trig=  2.03730e-09
tplh                =  1.52741e-10 targ=  2.22646e-08 trig=  2.21119e-08
i_vdd_avg           =  -2.84591e-06 from=  5.00000e-09 to=  1.10000e-07
power_avg_uw        =  5.38875e+00


Total analysis time (seconds) = 0.82255

Total elapsed time (seconds) = 0.896 

Total DRAM available = 16384.000 MB.
DRAM currently available =  148.438 MB.
Maximum ngspice program size =   12.578 MB.
Current ngspice program size =   11.656 MB.

