
Note: No compatibility mode selected!


Circuit: NOR2 seed characterization sample 4320015

Doing analysis at TEMP = 4.705610 and TNOM = 27.000000

Using SPARSE 1.3 as Direct Linear Solver

Initial Transient Solution
--------------------------

Node                                   Voltage
----                                   -------
vdd                                    1.68249
in                                           0
out                                    1.68249
pmid                                   1.68249
vin#branch                                   0
vdd#branch                        -3.55622e-12

 Reference value :  4.64257e-08
 Reference value :  1.06752e-07
No. of Data Rows : 60041

  Measurements for Transient Analysis

tphl                =  7.18889e-11 targ=  2.23426e-09 trig=  2.16237e-09
tplh                =  2.32489e-10 targ=  2.27196e-08 trig=  2.24871e-08
i_vdd_avg           =  -9.70656e-07 from=  5.00000e-09 to=  1.10000e-07
power_avg_uw        =  1.63312e+00


Total analysis time (seconds) = 0.478469

Total elapsed time (seconds) = 0.547 

Total DRAM available = 16384.000 MB.
DRAM currently available =  152.781 MB.
Maximum ngspice program size =   12.562 MB.
Current ngspice program size =   11.750 MB.

