
Note: No compatibility mode selected!


Circuit: XOR2 seed characterization sample 4320027

Doing analysis at TEMP = 26.892900 and TNOM = 27.000000

Using SPARSE 1.3 as Direct Linear Solver

Initial Transient Solution
--------------------------

Node                                   Voltage
----                                   -------
vdd                                    1.93788
in                                           0
b                                      1.93788
abar                                   1.93788
bbar                               9.84423e-10
out                                    1.93788
vb#branch                                    0
vin#branch                          3.4788e-12
vdd#branch                        -1.44137e-11

 Reference value :  2.77831e-08
 Reference value :  6.37291e-08
 Reference value :  1.00316e-07
No. of Data Rows : 60047

  Measurements for Transient Analysis

tphl                =  3.11058e-10 targ=  2.54259e-09 trig=  2.23153e-09
tplh                =  3.81609e-10 targ=  2.30762e-08 trig=  2.26946e-08
i_vdd_avg           =  -8.09049e-06 from=  5.00000e-09 to=  1.10001e-07
power_avg_uw        =  1.56784e+01


Total analysis time (seconds) = 0.799322

Total elapsed time (seconds) = 0.868 

Total DRAM available = 16384.000 MB.
DRAM currently available =  157.516 MB.
Maximum ngspice program size =   12.875 MB.
Current ngspice program size =   12.062 MB.

