
Note: No compatibility mode selected!


Circuit: NOR2 seed characterization sample 4320008

Doing analysis at TEMP = 77.007600 and TNOM = 27.000000

Using SPARSE 1.3 as Direct Linear Solver

Initial Transient Solution
--------------------------

Node                                   Voltage
----                                   -------
vdd                                    1.97988
in                                           0
out                                    1.97988
pmid                                   1.97988
vin#branch                                   0
vdd#branch                        -2.85205e-11

 Reference value :  4.28739e-08
 Reference value :  1.02128e-07
No. of Data Rows : 60041

  Measurements for Transient Analysis

tphl                =  9.46991e-11 targ=  2.13815e-09 trig=  2.04345e-09
tplh                =  4.18592e-10 targ=  2.25489e-08 trig=  2.21303e-08
i_vdd_avg           =  -2.97874e-06 from=  5.00000e-09 to=  1.10001e-07
power_avg_uw        =  5.89755e+00


Total analysis time (seconds) = 0.49176

Total elapsed time (seconds) = 0.568 

Total DRAM available = 16384.000 MB.
DRAM currently available =   92.109 MB.
Maximum ngspice program size =   12.703 MB.
Current ngspice program size =   12.266 MB.

