
Note: No compatibility mode selected!


Circuit: XOR2 seed characterization sample 4320021

Doing analysis at TEMP = 24.562800 and TNOM = 27.000000

Using SPARSE 1.3 as Direct Linear Solver

Initial Transient Solution
--------------------------

Node                                   Voltage
----                                   -------
vdd                                    1.85256
in                                           0
b                                      1.85256
abar                                   1.85256
bbar                               1.74532e-09
out                                    1.85256
vb#branch                                    0
vin#branch                         2.47273e-12
vdd#branch                        -1.22528e-11

 Reference value :  2.27094e-08
 Reference value :  5.55692e-08
 Reference value :  9.39652e-08
No. of Data Rows : 60044

  Measurements for Transient Analysis

tphl                =  3.51102e-10 targ=  2.43220e-09 trig=  2.08110e-09
tplh                =  4.90078e-10 targ=  2.27334e-08 trig=  2.22433e-08
i_vdd_avg           =  -5.96823e-06 from=  5.00000e-09 to=  1.10001e-07
power_avg_uw        =  1.10565e+01


Total analysis time (seconds) = 0.813056

Total elapsed time (seconds) = 0.893 

Total DRAM available = 16384.000 MB.
DRAM currently available =  158.156 MB.
Maximum ngspice program size =   12.578 MB.
Current ngspice program size =   11.969 MB.

