
Note: No compatibility mode selected!


Circuit: INV seed characterization sample 4320035

Doing analysis at TEMP = 43.423500 and TNOM = 27.000000

Using SPARSE 1.3 as Direct Linear Solver

Initial Transient Solution
--------------------------

Node                                   Voltage
----                                   -------
vdd                                    1.76044
in                                           0
out                                    1.76044
vin#branch                                   0
vdd#branch                        -3.40734e-12

 Reference value :  7.30741e-08
No. of Data Rows : 60044

  Measurements for Transient Analysis

tphl                =  2.75652e-10 targ=  2.41542e-09 trig=  2.13977e-09
tplh                =  2.94729e-10 targ=  2.27140e-08 trig=  2.24193e-08
i_vdd_avg           =  -4.47857e-06 from=  5.00000e-09 to=  1.10000e-07
power_avg_uw        =  7.88426e+00


Total analysis time (seconds) = 0.293998

Total elapsed time (seconds) = 0.366 

Total DRAM available = 16384.000 MB.
DRAM currently available =  165.781 MB.
Maximum ngspice program size =   12.562 MB.
Current ngspice program size =   11.906 MB.

