
Note: No compatibility mode selected!


Circuit: XOR2 seed characterization sample 4320020

Doing analysis at TEMP = 61.171800 and TNOM = 27.000000

Using SPARSE 1.3 as Direct Linear Solver

Initial Transient Solution
--------------------------

Node                                   Voltage
----                                   -------
vdd                                    1.62518
in                                           0
b                                      1.62518
abar                                   1.62518
bbar                                8.0749e-09
out                                    1.62518
vb#branch                                    0
vin#branch                         3.39883e-12
vdd#branch                         -1.3149e-11

 Reference value :  2.57532e-08
 Reference value :  6.01911e-08
 Reference value :  9.60471e-08
No. of Data Rows : 60044

  Measurements for Transient Analysis

tphl                =  1.47487e-09 targ=  3.65893e-09 trig=  2.18406e-09
tplh                =  2.08519e-09 targ=  2.46374e-08 trig=  2.25522e-08
i_vdd_avg           =  -4.80339e-06 from=  5.00000e-09 to=  1.10001e-07
power_avg_uw        =  7.80637e+00


Total analysis time (seconds) = 0.823108

Total elapsed time (seconds) = 0.898 

Total DRAM available = 16384.000 MB.
DRAM currently available =  151.500 MB.
Maximum ngspice program size =   12.578 MB.
Current ngspice program size =   11.734 MB.

