
Note: No compatibility mode selected!


Circuit: NAND2 seed characterization sample 4320030

Doing analysis at TEMP = 69.991400 and TNOM = 27.000000

Using SPARSE 1.3 as Direct Linear Solver

Initial Transient Solution
--------------------------

Node                                   Voltage
----                                   -------
vdd                                    1.76066
in                                           0
out                                    1.76066
nmid                                   0.04766
vin#branch                                   0
vdd#branch                        -2.38688e-12

 Reference value :  4.46801e-08
 Reference value :  1.03273e-07
No. of Data Rows : 60047

  Measurements for Transient Analysis

tphl                =  1.54921e-09 targ=  3.62173e-09 trig=  2.07253e-09
tplh                =  6.65741e-10 targ=  2.28833e-08 trig=  2.22176e-08
i_vdd_avg           =  -5.18767e-06 from=  5.00000e-09 to=  1.10001e-07
power_avg_uw        =  9.13373e+00


Total analysis time (seconds) = 0.497726

Total elapsed time (seconds) = 0.572 

Total DRAM available = 16384.000 MB.
DRAM currently available =  165.297 MB.
Maximum ngspice program size =   12.562 MB.
Current ngspice program size =   11.812 MB.

