
Note: No compatibility mode selected!


Circuit: INV seed characterization sample 4320022

Doing analysis at TEMP = 18.789100 and TNOM = 27.000000

Using SPARSE 1.3 as Direct Linear Solver

Initial Transient Solution
--------------------------

Node                                   Voltage
----                                   -------
vdd                                    1.66431
in                                           0
out                                    1.66431
vin#branch                                   0
vdd#branch                        -2.05526e-12

 Reference value :  6.45992e-08
No. of Data Rows : 60044

  Measurements for Transient Analysis

tphl                =  1.25693e-10 targ=  2.17774e-09 trig=  2.05204e-09
tplh                =  1.67748e-10 targ=  2.23239e-08 trig=  2.21561e-08
i_vdd_avg           =  -2.99543e-06 from=  5.00000e-09 to=  1.10001e-07
power_avg_uw        =  4.98533e+00


Total analysis time (seconds) = 0.316859

Total elapsed time (seconds) = 0.393 

Total DRAM available = 16384.000 MB.
DRAM currently available =  165.938 MB.
Maximum ngspice program size =   12.562 MB.
Current ngspice program size =   11.625 MB.

