
Note: No compatibility mode selected!


Circuit: XOR2 seed characterization sample 4320011

Doing analysis at TEMP = 59.602600 and TNOM = 27.000000

Using SPARSE 1.3 as Direct Linear Solver

Initial Transient Solution
--------------------------

Node                                   Voltage
----                                   -------
vdd                                    1.77844
in                                           0
b                                      1.77844
abar                                   1.77844
bbar                               4.87497e-09
out                                    1.77844
vb#branch                                    0
vin#branch                         4.58264e-12
vdd#branch                        -1.56963e-11

 Reference value :  2.51239e-08
 Reference value :  5.94994e-08
 Reference value :  9.55294e-08
No. of Data Rows : 60044

  Measurements for Transient Analysis

tphl                =  5.95649e-10 targ=  2.82286e-09 trig=  2.22721e-09
tplh                =  7.02088e-10 targ=  2.33837e-08 trig=  2.26816e-08
i_vdd_avg           =  -3.65604e-06 from=  5.00000e-09 to=  1.10002e-07
power_avg_uw        =  6.50205e+00


Total analysis time (seconds) = 0.820615

Total elapsed time (seconds) = 0.897 

Total DRAM available = 16384.000 MB.
DRAM currently available =  125.031 MB.
Maximum ngspice program size =   12.578 MB.
Current ngspice program size =   12.000 MB.

