
Note: No compatibility mode selected!


Circuit: NAND2 seed characterization sample 4320029

Doing analysis at TEMP = -16.720100 and TNOM = 27.000000

Using SPARSE 1.3 as Direct Linear Solver

Initial Transient Solution
--------------------------

Node                                   Voltage
----                                   -------
vdd                                    1.88193
in                                           0
out                                    1.88193
nmid                                0.00493124
vin#branch                                   0
vdd#branch                        -1.90613e-12

 Reference value :  4.51758e-08
 Reference value :  1.04255e-07
No. of Data Rows : 60041

  Measurements for Transient Analysis

tphl                =  1.03044e-10 targ=  2.16243e-09 trig=  2.05939e-09
tplh                =  5.28581e-11 targ=  2.22310e-08 trig=  2.21782e-08
i_vdd_avg           =  -1.87093e-06 from=  5.00000e-09 to=  1.10001e-07
power_avg_uw        =  3.52096e+00


Total analysis time (seconds) = 0.492522

Total elapsed time (seconds) = 0.566 

Total DRAM available = 16384.000 MB.
DRAM currently available =  165.297 MB.
Maximum ngspice program size =   12.562 MB.
Current ngspice program size =   12.188 MB.

