
Note: No compatibility mode selected!


Circuit: NOR2 seed characterization sample 4320033

Doing analysis at TEMP = -8.340440 and TNOM = 27.000000

Using SPARSE 1.3 as Direct Linear Solver

Initial Transient Solution
--------------------------

Node                                   Voltage
----                                   -------
vdd                                    1.75353
in                                           0
out                                    1.75353
pmid                                   1.75353
vin#branch                                   0
vdd#branch                        -3.58001e-12

 Reference value :  4.57719e-08
 Reference value :  1.06547e-07
No. of Data Rows : 60041

  Measurements for Transient Analysis

tphl                =  9.45764e-11 targ=  2.20702e-09 trig=  2.11245e-09
tplh                =  2.41288e-10 targ=  2.25786e-08 trig=  2.23373e-08
i_vdd_avg           =  -2.42560e-06 from=  5.00000e-09 to=  1.10001e-07
power_avg_uw        =  4.25336e+00


Total analysis time (seconds) = 0.470114

Total elapsed time (seconds) = 0.542 

Total DRAM available = 16384.000 MB.
DRAM currently available =  165.781 MB.
Maximum ngspice program size =   12.609 MB.
Current ngspice program size =   11.922 MB.

