
Note: No compatibility mode selected!


Circuit: INV seed characterization sample 4022007

Doing analysis at TEMP = 93.661500 and TNOM = 27.000000

Using SPARSE 1.3 as Direct Linear Solver

Initial Transient Solution
--------------------------

Node                                   Voltage
----                                   -------
vdd                                    1.66661
in                                           0
out                                    1.66661
vin#branch                                   0
vdd#branch                        -8.33446e-11

 Reference value :  7.29557e-08
No. of Data Rows : 60047

  Measurements for Transient Analysis

tphl                =  2.01738e-10 targ=  2.36741e-09 trig=  2.16567e-09
tplh                =  2.60718e-10 targ=  2.27577e-08 trig=  2.24970e-08
i_vdd_avg           =  -4.66781e-06 from=  5.00000e-09 to=  1.10002e-07
power_avg_uw        =  7.77941e+00


Total analysis time (seconds) = 0.284391

Total elapsed time (seconds) = 0.360 

Total DRAM available = 16384.000 MB.
DRAM currently available =  261.922 MB.
Maximum ngspice program size =   12.906 MB.
Current ngspice program size =   12.031 MB.

