
Note: No compatibility mode selected!


Circuit: XOR2 seed characterization sample 4022022

Doing analysis at TEMP = 40.365300 and TNOM = 27.000000

Using SPARSE 1.3 as Direct Linear Solver

Initial Transient Solution
--------------------------

Node                                   Voltage
----                                   -------
vdd                                    1.68979
in                                           0
b                                      1.68979
abar                                   1.68979
bbar                               1.20959e-09
out                                    1.68979
vb#branch                                    0
vin#branch                          4.7362e-12
vdd#branch                        -1.56013e-11

 Reference value :  2.29502e-08
 Reference value :  5.56396e-08
 Reference value :  9.00636e-08
No. of Data Rows : 60041

  Measurements for Transient Analysis

tphl                =  1.98879e-10 targ=  2.24018e-09 trig=  2.04130e-09
tplh                =  2.66707e-10 targ=  2.23906e-08 trig=  2.21239e-08
i_vdd_avg           =  -4.01083e-06 from=  5.00000e-09 to=  1.10000e-07
power_avg_uw        =  6.77746e+00


Total analysis time (seconds) = 0.861839

Total elapsed time (seconds) = 0.941 

Total DRAM available = 16384.000 MB.
DRAM currently available =  247.875 MB.
Maximum ngspice program size =   12.609 MB.
Current ngspice program size =   11.703 MB.

