
Note: No compatibility mode selected!


Circuit: NOR2 seed characterization sample 4022019

Doing analysis at TEMP = 21.841600 and TNOM = 27.000000

Using SPARSE 1.3 as Direct Linear Solver

Initial Transient Solution
--------------------------

Node                                   Voltage
----                                   -------
vdd                                    1.95559
in                                           0
out                                    1.95559
pmid                                   1.95559
vin#branch                                   0
vdd#branch                        -4.17664e-12

 Reference value :  4.67150e-08
 Reference value :  1.06955e-07
No. of Data Rows : 60044

  Measurements for Transient Analysis

tphl                =  2.81761e-10 targ=  2.42374e-09 trig=  2.14198e-09
tplh                =  1.16498e-09 targ=  2.35909e-08 trig=  2.24259e-08
i_vdd_avg           =  -4.41838e-06 from=  5.00000e-09 to=  1.10001e-07
power_avg_uw        =  8.64053e+00


Total analysis time (seconds) = 0.479192

Total elapsed time (seconds) = 0.548 

Total DRAM available = 16384.000 MB.
DRAM currently available =  263.688 MB.
Maximum ngspice program size =   12.562 MB.
Current ngspice program size =   12.156 MB.

