
Note: No compatibility mode selected!


Circuit: NOR2 seed characterization sample 4022018

Doing analysis at TEMP = 69.479900 and TNOM = 27.000000

Using SPARSE 1.3 as Direct Linear Solver

Initial Transient Solution
--------------------------

Node                                   Voltage
----                                   -------
vdd                                    1.80925
in                                           0
out                                    1.80925
pmid                                   1.80925
vin#branch                                   0
vdd#branch                        -4.77041e-11

 Reference value :  4.64412e-08
 Reference value :  1.06611e-07
No. of Data Rows : 60044

  Measurements for Transient Analysis

tphl                =  6.01988e-11 targ=  2.15431e-09 trig=  2.09411e-09
tplh                =  1.56360e-10 targ=  2.24387e-08 trig=  2.22823e-08
i_vdd_avg           =  -2.16003e-06 from=  5.00000e-09 to=  1.10001e-07
power_avg_uw        =  3.90803e+00


Total analysis time (seconds) = 0.479875

Total elapsed time (seconds) = 0.549 

Total DRAM available = 16384.000 MB.
DRAM currently available =  263.688 MB.
Maximum ngspice program size =   12.562 MB.
Current ngspice program size =   11.906 MB.

