
Note: No compatibility mode selected!


Circuit: NAND2 seed characterization sample 4022047

Doing analysis at TEMP = 70.182400 and TNOM = 27.000000

Using SPARSE 1.3 as Direct Linear Solver

Initial Transient Solution
--------------------------

Node                                   Voltage
----                                   -------
vdd                                    1.66753
in                                           0
out                                    1.66753
nmid                                 0.0490782
vin#branch                                   0
vdd#branch                        -5.17442e-12

 Reference value :  4.32727e-08
 Reference value :  1.01799e-07
No. of Data Rows : 60044

  Measurements for Transient Analysis

tphl                =  1.82331e-10 targ=  2.41520e-09 trig=  2.23286e-09
tplh                =  1.22066e-10 targ=  2.28207e-08 trig=  2.26986e-08
i_vdd_avg           =  -1.15984e-06 from=  5.00000e-09 to=  1.10000e-07
power_avg_uw        =  1.93406e+00


Total analysis time (seconds) = 0.500948

Total elapsed time (seconds) = 0.578 

Total DRAM available = 16384.000 MB.
DRAM currently available =  248.625 MB.
Maximum ngspice program size =   12.562 MB.
Current ngspice program size =   11.906 MB.

