
Note: No compatibility mode selected!


Circuit: NAND2 seed characterization sample 4022033

Doing analysis at TEMP = 49.272400 and TNOM = 27.000000

Using SPARSE 1.3 as Direct Linear Solver

Initial Transient Solution
--------------------------

Node                                   Voltage
----                                   -------
vdd                                    1.81053
in                                           0
out                                    1.81053
nmid                                 0.0478047
vin#branch                                   0
vdd#branch                        -2.55597e-12

 Reference value :  3.74138e-08
 Reference value :  9.28734e-08
No. of Data Rows : 60044

  Measurements for Transient Analysis

tphl                =  2.71713e-10 targ=  2.29192e-09 trig=  2.02021e-09
tplh                =  1.33585e-10 targ=  2.21942e-08 trig=  2.20606e-08
i_vdd_avg           =  -4.44952e-06 from=  5.00000e-09 to=  1.10002e-07
power_avg_uw        =  8.05599e+00


Total analysis time (seconds) = 0.547777

Total elapsed time (seconds) = 0.623 

Total DRAM available = 16384.000 MB.
DRAM currently available =  208.109 MB.
Maximum ngspice program size =   12.562 MB.
Current ngspice program size =   11.844 MB.

