
Note: No compatibility mode selected!


Circuit: NOR2 seed characterization sample 4022004

Doing analysis at TEMP = 14.359300 and TNOM = 27.000000

Using SPARSE 1.3 as Direct Linear Solver

Initial Transient Solution
--------------------------

Node                                   Voltage
----                                   -------
vdd                                    1.63466
in                                           0
out                                    1.63466
pmid                                   1.63466
vin#branch                                   0
vdd#branch                        -3.57095e-12

 Reference value :  4.82718e-08
 Reference value :  1.10373e-07
No. of Data Rows : 60041

  Measurements for Transient Analysis

tphl                =  6.39755e-11 targ=  2.13239e-09 trig=  2.06842e-09
tplh                =  1.58104e-10 targ=  2.23634e-08 trig=  2.22052e-08
i_vdd_avg           =  -1.02061e-06 from=  5.00000e-09 to=  1.10001e-07
power_avg_uw        =  1.66835e+00


Total analysis time (seconds) = 0.466787

Total elapsed time (seconds) = 0.534 

Total DRAM available = 16384.000 MB.
DRAM currently available =  253.094 MB.
Maximum ngspice program size =   12.562 MB.
Current ngspice program size =   11.906 MB.

