
Note: No compatibility mode selected!


Circuit: INV seed characterization sample 4022013

Doing analysis at TEMP = -17.586400 and TNOM = 27.000000

Using SPARSE 1.3 as Direct Linear Solver

Initial Transient Solution
--------------------------

Node                                   Voltage
----                                   -------
vdd                                    1.94565
in                                           0
out                                    1.94565
vin#branch                                   0
vdd#branch                        -1.96251e-12

 Reference value :  6.13334e-08
No. of Data Rows : 60044

  Measurements for Transient Analysis

tphl                =  6.54766e-11 targ=  2.15768e-09 trig=  2.09220e-09
tplh                =  8.61954e-11 targ=  2.23628e-08 trig=  2.22766e-08
i_vdd_avg           =  -6.44812e-07 from=  5.00000e-09 to=  1.10002e-07
power_avg_uw        =  1.25458e+00


Total analysis time (seconds) = 0.317922

Total elapsed time (seconds) = 0.403 

Total DRAM available = 16384.000 MB.
DRAM currently available =  270.359 MB.
Maximum ngspice program size =   12.797 MB.
Current ngspice program size =   12.156 MB.

