
Note: No compatibility mode selected!


Circuit: XOR2 seed characterization sample 4022042

Doing analysis at TEMP = 3.263560 and TNOM = 27.000000

Using SPARSE 1.3 as Direct Linear Solver

Initial Transient Solution
--------------------------

Node                                   Voltage
----                                   -------
vdd                                    1.82863
in                                           0
b                                      1.82863
abar                                   1.82863
bbar                                9.4443e-10
out                                    1.82863
vb#branch                                    0
vin#branch                         2.00872e-12
vdd#branch                        -1.13342e-11

 Reference value :  2.63623e-08
 Reference value :  6.09776e-08
 Reference value :  9.74276e-08
No. of Data Rows : 60041

  Measurements for Transient Analysis

tphl                =  2.51473e-10 targ=  2.28479e-09 trig=  2.03331e-09
tplh                =  2.96653e-10 targ=  2.23966e-08 trig=  2.20999e-08
i_vdd_avg           =  -7.57074e-06 from=  5.00000e-09 to=  1.10000e-07
power_avg_uw        =  1.38441e+01


Total analysis time (seconds) = 0.814742

Total elapsed time (seconds) = 0.887 

Total DRAM available = 16384.000 MB.
DRAM currently available =  234.031 MB.
Maximum ngspice program size =   12.688 MB.
Current ngspice program size =   11.781 MB.

