
Note: No compatibility mode selected!


Circuit: INV seed characterization sample 4022002

Doing analysis at TEMP = 66.005500 and TNOM = 27.000000

Using SPARSE 1.3 as Direct Linear Solver

Initial Transient Solution
--------------------------

Node                                   Voltage
----                                   -------
vdd                                    1.63564
in                                           0
out                                    1.63564
vin#branch                                   0
vdd#branch                        -4.12777e-12

 Reference value :  7.56701e-08
No. of Data Rows : 60044

  Measurements for Transient Analysis

tphl                =  3.58614e-10 targ=  2.60540e-09 trig=  2.24679e-09
tplh                =  5.21954e-10 targ=  2.32623e-08 trig=  2.27404e-08
i_vdd_avg           =  -1.79198e-06 from=  5.00000e-09 to=  1.10000e-07
power_avg_uw        =  2.93104e+00


Total analysis time (seconds) = 0.284735

Total elapsed time (seconds) = 0.352 

Total DRAM available = 16384.000 MB.
DRAM currently available =  253.094 MB.
Maximum ngspice program size =   12.562 MB.
Current ngspice program size =   11.719 MB.

