
Note: No compatibility mode selected!


Circuit: XOR2 seed characterization sample 4022026

Doing analysis at TEMP = -15.696100 and TNOM = 27.000000

Using SPARSE 1.3 as Direct Linear Solver

Initial Transient Solution
--------------------------

Node                                   Voltage
----                                   -------
vdd                                    1.63585
in                                           0
b                                      1.63585
abar                                   1.63585
bbar                               1.32129e-09
out                                    1.63585
vb#branch                                    0
vin#branch                         1.65925e-12
vdd#branch                        -9.89875e-12

 Reference value :  2.34399e-08
 Reference value :  5.48794e-08
 Reference value :  8.65714e-08
No. of Data Rows : 60044

  Measurements for Transient Analysis

tphl                =  2.46626e-10 targ=  2.40784e-09 trig=  2.16122e-09
tplh                =  2.98079e-10 targ=  2.27817e-08 trig=  2.24836e-08
i_vdd_avg           =  -2.66070e-06 from=  5.00000e-09 to=  1.10002e-07
power_avg_uw        =  4.35250e+00


Total analysis time (seconds) = 0.889489

Total elapsed time (seconds) = 0.968 

Total DRAM available = 16384.000 MB.
DRAM currently available =  243.234 MB.
Maximum ngspice program size =   12.578 MB.
Current ngspice program size =   11.953 MB.

