
Note: No compatibility mode selected!


Circuit: XOR2 seed characterization sample 4022008

Doing analysis at TEMP = 55.717000 and TNOM = 27.000000

Using SPARSE 1.3 as Direct Linear Solver

Initial Transient Solution
--------------------------

Node                                   Voltage
----                                   -------
vdd                                      1.714
in                                           0
b                                        1.714
abar                                     1.714
bbar                               4.63028e-09
out                                      1.714
vb#branch                                    0
vin#branch                         3.92289e-12
vdd#branch                        -1.42101e-11

 Reference value :  2.20370e-08
 Reference value :  5.75770e-08
 Reference value :  9.50910e-08
No. of Data Rows : 60044

  Measurements for Transient Analysis

tphl                =  7.99836e-10 targ=  2.86382e-09 trig=  2.06399e-09
tplh                =  7.80626e-10 targ=  2.29726e-08 trig=  2.21920e-08
i_vdd_avg           =  -5.56125e-06 from=  5.00000e-09 to=  1.10001e-07
power_avg_uw        =  9.53198e+00


Total analysis time (seconds) = 0.789898

Total elapsed time (seconds) = 0.891 

Total DRAM available = 16384.000 MB.
DRAM currently available =  260.422 MB.
Maximum ngspice program size =   13.062 MB.
Current ngspice program size =   13.062 MB.

