
Note: No compatibility mode selected!


Circuit: INV seed characterization sample 4422007

Doing analysis at TEMP = -9.794260 and TNOM = 27.000000

Using SPARSE 1.3 as Direct Linear Solver

Initial Transient Solution
--------------------------

Node                                   Voltage
----                                   -------
vdd                                    1.62514
in                                           0
out                                    1.62514
vin#branch                                   0
vdd#branch                        -1.66609e-12

 Reference value :  7.70135e-08
No. of Data Rows : 60044

  Measurements for Transient Analysis

tphl                =  1.85697e-10 targ=  2.27583e-09 trig=  2.09013e-09
tplh                =  2.34151e-10 targ=  2.25045e-08 trig=  2.22704e-08
i_vdd_avg           =  -4.99545e-06 from=  5.00000e-09 to=  1.10002e-07
power_avg_uw        =  8.11831e+00


Total analysis time (seconds) = 0.283092

Total elapsed time (seconds) = 0.350 

Total DRAM available = 16384.000 MB.
DRAM currently available =  159.344 MB.
Maximum ngspice program size =   12.562 MB.
Current ngspice program size =   11.906 MB.

