
Note: No compatibility mode selected!


Circuit: INV seed characterization sample 4422028

Doing analysis at TEMP = 2.680090 and TNOM = 27.000000

Using SPARSE 1.3 as Direct Linear Solver

Initial Transient Solution
--------------------------

Node                                   Voltage
----                                   -------
vdd                                    1.93118
in                                           0
out                                    1.93118
vin#branch                                   0
vdd#branch                        -1.98976e-12

 Reference value :  7.63990e-08
No. of Data Rows : 60047

  Measurements for Transient Analysis

tphl                =  2.63027e-10 targ=  2.48153e-09 trig=  2.21850e-09
tplh                =  2.68750e-10 targ=  2.29243e-08 trig=  2.26555e-08
i_vdd_avg           =  -3.57656e-06 from=  5.00000e-09 to=  1.10001e-07
power_avg_uw        =  6.90698e+00


Total analysis time (seconds) = 0.28292

Total elapsed time (seconds) = 0.351 

Total DRAM available = 16384.000 MB.
DRAM currently available =  169.891 MB.
Maximum ngspice program size =   12.609 MB.
Current ngspice program size =   11.703 MB.

