
Note: No compatibility mode selected!


Circuit: NOR2 seed characterization sample 4422003

Doing analysis at TEMP = 21.447300 and TNOM = 27.000000

Using SPARSE 1.3 as Direct Linear Solver

Initial Transient Solution
--------------------------

Node                                   Voltage
----                                   -------
vdd                                    1.94742
in                                           0
out                                    1.94742
pmid                                   1.94742
vin#branch                                   0
vdd#branch                        -4.52478e-12

 Reference value :  4.61745e-08
 Reference value :  1.08560e-07
No. of Data Rows : 60044

  Measurements for Transient Analysis

tphl                =  1.27688e-10 targ=  2.14644e-09 trig=  2.01876e-09
tplh                =  5.00847e-10 targ=  2.25571e-08 trig=  2.20563e-08
i_vdd_avg           =  -5.73795e-06 from=  5.00000e-09 to=  1.10000e-07
power_avg_uw        =  1.11742e+01


Total analysis time (seconds) = 0.464741

Total elapsed time (seconds) = 0.534 

Total DRAM available = 16384.000 MB.
DRAM currently available =  162.922 MB.
Maximum ngspice program size =   12.562 MB.
Current ngspice program size =   11.797 MB.

