
Note: No compatibility mode selected!


Circuit: INV seed characterization sample 4422013

Doing analysis at TEMP = 17.940600 and TNOM = 27.000000

Using SPARSE 1.3 as Direct Linear Solver

Initial Transient Solution
--------------------------

Node                                   Voltage
----                                   -------
vdd                                    1.68409
in                                           0
out                                    1.68409
vin#branch                                   0
vdd#branch                         -2.0805e-12

 Reference value :  7.34979e-08
No. of Data Rows : 60044

  Measurements for Transient Analysis

tphl                =  7.10312e-11 targ=  2.12027e-09 trig=  2.04923e-09
tplh                =  1.02804e-10 targ=  2.22505e-08 trig=  2.21477e-08
i_vdd_avg           =  -1.47306e-06 from=  5.00000e-09 to=  1.10002e-07
power_avg_uw        =  2.48076e+00


Total analysis time (seconds) = 0.294869

Total elapsed time (seconds) = 0.366 

Total DRAM available = 16384.000 MB.
DRAM currently available =  154.047 MB.
Maximum ngspice program size =   12.562 MB.
Current ngspice program size =   11.656 MB.

