
Note: No compatibility mode selected!


Circuit: NAND2 seed characterization sample 4422025

Doing analysis at TEMP = 73.172900 and TNOM = 27.000000

Using SPARSE 1.3 as Direct Linear Solver

Initial Transient Solution
--------------------------

Node                                   Voltage
----                                   -------
vdd                                    1.88286
in                                           0
out                                    1.88286
nmid                                 0.0533027
vin#branch                                   0
vdd#branch                        -5.78235e-12

 Reference value :  4.79778e-08
 Reference value :  1.09847e-07
No. of Data Rows : 60041

  Measurements for Transient Analysis

tphl                =  2.25457e-10 targ=  2.46887e-09 trig=  2.24341e-09
tplh                =  1.29836e-10 targ=  2.28601e-08 trig=  2.27302e-08
i_vdd_avg           =  -2.24629e-06 from=  5.00000e-09 to=  1.10001e-07
power_avg_uw        =  4.22946e+00


Total analysis time (seconds) = 0.465745

Total elapsed time (seconds) = 0.535 

Total DRAM available = 16384.000 MB.
DRAM currently available =  169.891 MB.
Maximum ngspice program size =   12.562 MB.
Current ngspice program size =   11.766 MB.

