
Note: No compatibility mode selected!


Circuit: INV seed characterization sample 4422043

Doing analysis at TEMP = 67.869500 and TNOM = 27.000000

Using SPARSE 1.3 as Direct Linear Solver

Initial Transient Solution
--------------------------

Node                                   Voltage
----                                   -------
vdd                                     1.8874
in                                           0
out                                     1.8874
vin#branch                                   0
vdd#branch                        -8.06978e-12

 Reference value :  6.84879e-08
No. of Data Rows : 60044

  Measurements for Transient Analysis

tphl                =  2.86734e-10 targ=  2.41097e-09 trig=  2.12423e-09
tplh                =  3.38954e-10 targ=  2.27117e-08 trig=  2.23727e-08
i_vdd_avg           =  -4.02140e-06 from=  5.00000e-09 to=  1.10002e-07
power_avg_uw        =  7.58999e+00


Total analysis time (seconds) = 0.310507

Total elapsed time (seconds) = 0.388 

Total DRAM available = 16384.000 MB.
DRAM currently available =  152.000 MB.
Maximum ngspice program size =   12.562 MB.
Current ngspice program size =   11.875 MB.

