
Note: No compatibility mode selected!


Circuit: XOR2 seed characterization sample 4422045

Doing analysis at TEMP = 13.410000 and TNOM = 27.000000

Using SPARSE 1.3 as Direct Linear Solver

Initial Transient Solution
--------------------------

Node                                   Voltage
----                                   -------
vdd                                    1.91228
in                                           0
b                                      1.91228
abar                                   1.91228
bbar                               9.80015e-10
out                                    1.91228
vb#branch                                    0
vin#branch                         2.38684e-12
vdd#branch                        -1.23601e-11

 Reference value :  2.36533e-08
 Reference value :  5.45411e-08
 Reference value :  8.65811e-08
No. of Data Rows : 60044

  Measurements for Transient Analysis

tphl                =  1.88641e-10 targ=  2.32571e-09 trig=  2.13707e-09
tplh                =  1.85138e-10 targ=  2.25964e-08 trig=  2.24112e-08
i_vdd_avg           =  -4.24437e-06 from=  5.00000e-09 to=  1.10001e-07
power_avg_uw        =  8.11642e+00


Total analysis time (seconds) = 0.893374

Total elapsed time (seconds) = 0.971 

Total DRAM available = 16384.000 MB.
DRAM currently available =  198.359 MB.
Maximum ngspice program size =   12.578 MB.
Current ngspice program size =   11.625 MB.

