
Note: No compatibility mode selected!


Circuit: NAND2 seed characterization sample 4422020

Doing analysis at TEMP = 20.595700 and TNOM = 27.000000

Using SPARSE 1.3 as Direct Linear Solver

Initial Transient Solution
--------------------------

Node                                   Voltage
----                                   -------
vdd                                    1.84596
in                                           0
out                                    1.84596
nmid                                 0.0174443
vin#branch                                   0
vdd#branch                        -1.90812e-12

 Reference value :  4.66658e-08
 Reference value :  1.06903e-07
No. of Data Rows : 60041

  Measurements for Transient Analysis

tphl                =  9.97807e-10 targ=  3.14621e-09 trig=  2.14840e-09
tplh                =  4.32167e-10 targ=  2.28774e-08 trig=  2.24452e-08
i_vdd_avg           =  -4.64874e-06 from=  5.00000e-09 to=  1.10001e-07
power_avg_uw        =  8.58139e+00


Total analysis time (seconds) = 0.483229

Total elapsed time (seconds) = 0.554 

Total DRAM available = 16384.000 MB.
DRAM currently available =  170.578 MB.
Maximum ngspice program size =   12.562 MB.
Current ngspice program size =   11.922 MB.

