
Note: No compatibility mode selected!


Circuit: XOR2 seed characterization sample 4422026

Doing analysis at TEMP = 74.947800 and TNOM = 27.000000

Using SPARSE 1.3 as Direct Linear Solver

Initial Transient Solution
--------------------------

Node                                   Voltage
----                                   -------
vdd                                    1.62233
in                                           0
b                                      1.62233
abar                                   1.62233
bbar                               3.10163e-09
out                                    1.62233
vb#branch                                    0
vin#branch                         2.45367e-11
vdd#branch                        -5.05078e-11

 Reference value :  2.72447e-08
 Reference value :  6.22798e-08
 Reference value :  9.93538e-08
No. of Data Rows : 60041

  Measurements for Transient Analysis

tphl                =  2.55299e-10 targ=  2.37171e-09 trig=  2.11642e-09
tplh                =  2.72813e-10 targ=  2.26221e-08 trig=  2.23492e-08
i_vdd_avg           =  -3.05952e-06 from=  5.00000e-09 to=  1.10001e-07
power_avg_uw        =  4.96356e+00


Total analysis time (seconds) = 0.807869

Total elapsed time (seconds) = 0.877 

Total DRAM available = 16384.000 MB.
DRAM currently available =  169.891 MB.
Maximum ngspice program size =   12.609 MB.
Current ngspice program size =   12.016 MB.

