
Note: No compatibility mode selected!


Circuit: INV seed characterization sample 4422023

Doing analysis at TEMP = 96.990800 and TNOM = 27.000000

Using SPARSE 1.3 as Direct Linear Solver

Initial Transient Solution
--------------------------

Node                                   Voltage
----                                   -------
vdd                                    1.77121
in                                           0
out                                    1.77121
vin#branch                                   0
vdd#branch                        -2.99115e-11

 Reference value :  7.24569e-08
No. of Data Rows : 60041

  Measurements for Transient Analysis

tphl                =  2.05100e-10 targ=  2.40456e-09 trig=  2.19946e-09
tplh                =  2.84450e-10 targ=  2.28828e-08 trig=  2.25984e-08
i_vdd_avg           =  -1.60834e-06 from=  5.00000e-09 to=  1.10001e-07
power_avg_uw        =  2.84871e+00


Total analysis time (seconds) = 0.297599

Total elapsed time (seconds) = 0.369 

Total DRAM available = 16384.000 MB.
DRAM currently available =  179.297 MB.
Maximum ngspice program size =   12.562 MB.
Current ngspice program size =   11.625 MB.

