
Note: No compatibility mode selected!


Circuit: NAND2 seed characterization sample 4422014

Doing analysis at TEMP = 85.770300 and TNOM = 27.000000

Using SPARSE 1.3 as Direct Linear Solver

Initial Transient Solution
--------------------------

Node                                   Voltage
----                                   -------
vdd                                    1.79294
in                                           0
out                                    1.79294
nmid                                 0.0524458
vin#branch                                   0
vdd#branch                        -6.15114e-12

 Reference value :  4.57051e-08
 Reference value :  1.05981e-07
No. of Data Rows : 60044

  Measurements for Transient Analysis

tphl                =  3.32650e-10 targ=  2.35070e-09 trig=  2.01805e-09
tplh                =  9.29368e-11 targ=  2.21471e-08 trig=  2.20542e-08
i_vdd_avg           =  -3.22090e-06 from=  5.00000e-09 to=  1.10001e-07
power_avg_uw        =  5.77488e+00


Total analysis time (seconds) = 0.477225

Total elapsed time (seconds) = 0.550 

Total DRAM available = 16384.000 MB.
DRAM currently available =  154.047 MB.
Maximum ngspice program size =   12.562 MB.
Current ngspice program size =   11.625 MB.

