
Note: No compatibility mode selected!


Circuit: XOR2 seed characterization sample 4422027

Doing analysis at TEMP = 44.223200 and TNOM = 27.000000

Using SPARSE 1.3 as Direct Linear Solver

Initial Transient Solution
--------------------------

Node                                   Voltage
----                                   -------
vdd                                    1.84272
in                                           0
b                                      1.84272
abar                                   1.84272
bbar                               1.23824e-09
out                                    1.84272
vb#branch                                    0
vin#branch                         6.50112e-12
vdd#branch                        -1.93895e-11

 Reference value :  2.70702e-08
 Reference value :  6.22582e-08
 Reference value :  9.95625e-08
No. of Data Rows : 60044

  Measurements for Transient Analysis

tphl                =  2.31842e-10 targ=  2.24865e-09 trig=  2.01681e-09
tplh                =  2.65240e-10 targ=  2.23157e-08 trig=  2.20504e-08
i_vdd_avg           =  -6.42679e-06 from=  5.00000e-09 to=  1.10000e-07
power_avg_uw        =  1.18428e+01


Total analysis time (seconds) = 0.80507

Total elapsed time (seconds) = 0.875 

Total DRAM available = 16384.000 MB.
DRAM currently available =  169.891 MB.
Maximum ngspice program size =   12.578 MB.
Current ngspice program size =   12.391 MB.

