
Note: No compatibility mode selected!


Circuit: INV seed characterization sample 4013004

Doing analysis at TEMP = 57.585100 and TNOM = 27.000000

Using SPARSE 1.3 as Direct Linear Solver

Initial Transient Solution
--------------------------

Node                                   Voltage
----                                   -------
vdd                                    1.87845
in                                           0
out                                    1.87845
vin#branch                                   0
vdd#branch                        -1.99596e-12

 Reference value :  7.57923e-08
No. of Data Rows : 60041

  Measurements for Transient Analysis

tphl                =  8.74769e-10 targ=  3.06310e-09 trig=  2.18833e-09
tplh                =  1.06691e-09 targ=  2.36319e-08 trig=  2.25650e-08
i_vdd_avg           =  -3.92594e-06 from=  5.00000e-09 to=  1.10000e-07
power_avg_uw        =  7.37468e+00


Total analysis time (seconds) = 0.287331

Total elapsed time (seconds) = 0.354 

Total DRAM available = 16384.000 MB.
DRAM currently available =  190.062 MB.
Maximum ngspice program size =   12.562 MB.
Current ngspice program size =   11.906 MB.

