
Note: No compatibility mode selected!


Circuit: XOR2 seed characterization sample 4013039

Doing analysis at TEMP = 22.467400 and TNOM = 27.000000

Using SPARSE 1.3 as Direct Linear Solver

Initial Transient Solution
--------------------------

Node                                   Voltage
----                                   -------
vdd                                    1.93913
in                                           0
b                                      1.93913
abar                                   1.93913
bbar                               2.28706e-09
out                                    1.93913
vb#branch                                    0
vin#branch                         1.97742e-12
vdd#branch                        -1.17446e-11

 Reference value :  2.37227e-08
 Reference value :  5.53759e-08
 Reference value :  8.64999e-08
No. of Data Rows : 60041

  Measurements for Transient Analysis

tphl                =  5.34635e-10 targ=  2.70106e-09 trig=  2.16643e-09
tplh                =  8.01733e-10 targ=  2.33010e-08 trig=  2.24993e-08
i_vdd_avg           =  -6.50590e-06 from=  5.00000e-09 to=  1.10001e-07
power_avg_uw        =  1.26158e+01


Total analysis time (seconds) = 0.911579

Total elapsed time (seconds) = 0.989 

Total DRAM available = 16384.000 MB.
DRAM currently available =  233.344 MB.
Maximum ngspice program size =   12.578 MB.
Current ngspice program size =   11.828 MB.

