
Note: No compatibility mode selected!


Circuit: INV seed characterization sample 4013005

Doing analysis at TEMP = 69.776400 and TNOM = 27.000000

Using SPARSE 1.3 as Direct Linear Solver

Initial Transient Solution
--------------------------

Node                                   Voltage
----                                   -------
vdd                                    1.87241
in                                           0
out                                    1.87241
vin#branch                                   0
vdd#branch                        -2.56715e-12

 Reference value :  7.52496e-08
No. of Data Rows : 60044

  Measurements for Transient Analysis

tphl                =  4.47236e-10 targ=  2.68838e-09 trig=  2.24115e-09
tplh                =  6.95275e-10 targ=  2.34187e-08 trig=  2.27234e-08
i_vdd_avg           =  -4.94277e-06 from=  5.00000e-09 to=  1.10002e-07
power_avg_uw        =  9.25489e+00


Total analysis time (seconds) = 0.28854

Total elapsed time (seconds) = 0.356 

Total DRAM available = 16384.000 MB.
DRAM currently available =  198.422 MB.
Maximum ngspice program size =   12.562 MB.
Current ngspice program size =   11.906 MB.

