
Note: No compatibility mode selected!


Circuit: INV seed characterization sample 4013045

Doing analysis at TEMP = 0.540948 and TNOM = 27.000000

Using SPARSE 1.3 as Direct Linear Solver

Initial Transient Solution
--------------------------

Node                                   Voltage
----                                   -------
vdd                                    1.74415
in                                           0
out                                    1.74415
vin#branch                                   0
vdd#branch                        -1.75536e-12

 Reference value :  6.63625e-08
No. of Data Rows : 60041

  Measurements for Transient Analysis

tphl                =  5.14154e-10 targ=  2.59454e-09 trig=  2.08038e-09
tplh                =  6.09133e-10 targ=  2.28503e-08 trig=  2.22411e-08
i_vdd_avg           =  -4.96165e-06 from=  5.00000e-09 to=  1.10001e-07
power_avg_uw        =  8.65386e+00


Total analysis time (seconds) = 0.309844

Total elapsed time (seconds) = 0.386 

Total DRAM available = 16384.000 MB.
DRAM currently available =  217.016 MB.
Maximum ngspice program size =   12.562 MB.
Current ngspice program size =   11.594 MB.

