
Note: No compatibility mode selected!


Circuit: XOR2 seed characterization sample 4013044

Doing analysis at TEMP = -4.481880 and TNOM = 27.000000

Using SPARSE 1.3 as Direct Linear Solver

Initial Transient Solution
--------------------------

Node                                   Voltage
----                                   -------
vdd                                    1.80329
in                                           0
b                                      1.80329
abar                                   1.80329
bbar                               2.72205e-09
out                                    1.80329
vb#branch                                    0
vin#branch                         1.81456e-12
vdd#branch                         -1.0882e-11

 Reference value :  2.28403e-08
 Reference value :  5.36606e-08
 Reference value :  8.53846e-08
No. of Data Rows : 60044

  Measurements for Transient Analysis

tphl                =  2.06240e-10 targ=  2.22306e-09 trig=  2.01682e-09
tplh                =  2.61084e-10 targ=  2.23115e-08 trig=  2.20505e-08
i_vdd_avg           =  -1.78268e-06 from=  5.00000e-09 to=  1.10000e-07
power_avg_uw        =  3.21468e+00


Total analysis time (seconds) = 0.895639

Total elapsed time (seconds) = 0.973 

Total DRAM available = 16384.000 MB.
DRAM currently available =  236.250 MB.
Maximum ngspice program size =   12.578 MB.
Current ngspice program size =   11.875 MB.

