
Note: No compatibility mode selected!


Circuit: NAND2 seed characterization sample 4013029

Doing analysis at TEMP = -5.632540 and TNOM = 27.000000

Using SPARSE 1.3 as Direct Linear Solver

Initial Transient Solution
--------------------------

Node                                   Voltage
----                                   -------
vdd                                    1.66891
in                                           0
out                                    1.66891
nmid                               0.000114349
vin#branch                                   0
vdd#branch                        -1.67924e-12

 Reference value :  4.63003e-08
 Reference value :  1.07028e-07
No. of Data Rows : 60047

  Measurements for Transient Analysis

tphl                =  7.44425e-10 targ=  2.77310e-09 trig=  2.02867e-09
tplh                =  2.38718e-10 targ=  2.23247e-08 trig=  2.20860e-08
i_vdd_avg           =  -1.51366e-06 from=  5.00000e-09 to=  1.10002e-07
power_avg_uw        =  2.52615e+00


Total analysis time (seconds) = 0.481969

Total elapsed time (seconds) = 0.552 

Total DRAM available = 16384.000 MB.
DRAM currently available =  219.875 MB.
Maximum ngspice program size =   12.562 MB.
Current ngspice program size =   11.625 MB.

