
Note: No compatibility mode selected!


Circuit: NOR2 seed characterization sample 4013011

Doing analysis at TEMP = 98.150500 and TNOM = 27.000000

Using SPARSE 1.3 as Direct Linear Solver

Initial Transient Solution
--------------------------

Node                                   Voltage
----                                   -------
vdd                                    1.79843
in                                           0
out                                    1.79843
pmid                                   1.79843
vin#branch                                   0
vdd#branch                         -2.5984e-11

 Reference value :  3.99461e-08
 Reference value :  9.27756e-08
No. of Data Rows : 60041

  Measurements for Transient Analysis

tphl                =  7.43812e-11 targ=  2.27966e-09 trig=  2.20528e-09
tplh                =  2.20791e-10 targ=  2.28366e-08 trig=  2.26158e-08
i_vdd_avg           =  -1.33819e-06 from=  5.00000e-09 to=  1.10000e-07
power_avg_uw        =  2.40664e+00


Total analysis time (seconds) = 0.548413

Total elapsed time (seconds) = 0.624 

Total DRAM available = 16384.000 MB.
DRAM currently available =  186.062 MB.
Maximum ngspice program size =   13.016 MB.
Current ngspice program size =   13.016 MB.

