
Note: No compatibility mode selected!


Circuit: XOR2 seed characterization sample 4013025

Doing analysis at TEMP = 33.040700 and TNOM = 27.000000

Using SPARSE 1.3 as Direct Linear Solver

Initial Transient Solution
--------------------------

Node                                   Voltage
----                                   -------
vdd                                    1.62162
in                                           0
b                                      1.62162
abar                                   1.62162
bbar                               4.81611e-09
out                                    1.62162
vb#branch                                    0
vin#branch                         1.65707e-12
vdd#branch                        -9.83452e-12

 Reference value :  2.31220e-08
 Reference value :  5.66385e-08
 Reference value :  9.35945e-08
No. of Data Rows : 60044

  Measurements for Transient Analysis

tphl                =  6.55126e-10 targ=  2.87188e-09 trig=  2.21676e-09
tplh                =  7.33932e-10 targ=  2.33842e-08 trig=  2.26503e-08
i_vdd_avg           =  -2.39929e-06 from=  5.00000e-09 to=  1.10000e-07
power_avg_uw        =  3.89073e+00


Total analysis time (seconds) = 0.822097

Total elapsed time (seconds) = 0.902 

Total DRAM available = 16384.000 MB.
DRAM currently available =  219.391 MB.
Maximum ngspice program size =   12.703 MB.
Current ngspice program size =   12.203 MB.

