
Note: No compatibility mode selected!


Circuit: XOR2 seed characterization sample 4013020

Doing analysis at TEMP = -12.116600 and TNOM = 27.000000

Using SPARSE 1.3 as Direct Linear Solver

Initial Transient Solution
--------------------------

Node                                   Voltage
----                                   -------
vdd                                     1.6689
in                                           0
b                                       1.6689
abar                                    1.6689
bbar                               4.53708e-09
out                                     1.6689
vb#branch                                    0
vin#branch                         1.67914e-12
vdd#branch                        -1.00738e-11

 Reference value :  2.52923e-08
 Reference value :  5.90096e-08
 Reference value :  9.19496e-08
No. of Data Rows : 60041

  Measurements for Transient Analysis

tphl                =  8.19258e-10 targ=  3.00257e-09 trig=  2.18332e-09
tplh                =  1.28822e-09 targ=  2.38382e-08 trig=  2.25499e-08
i_vdd_avg           =  -3.37259e-06 from=  5.00000e-09 to=  1.10000e-07
power_avg_uw        =  5.62852e+00


Total analysis time (seconds) = 0.84858

Total elapsed time (seconds) = 0.924 

Total DRAM available = 16384.000 MB.
DRAM currently available =  199.109 MB.
Maximum ngspice program size =   12.578 MB.
Current ngspice program size =   11.938 MB.

