
Note: No compatibility mode selected!


Circuit: NAND2 seed characterization sample 4013008

Doing analysis at TEMP = 71.007600 and TNOM = 27.000000

Using SPARSE 1.3 as Direct Linear Solver

Initial Transient Solution
--------------------------

Node                                   Voltage
----                                   -------
vdd                                    1.69766
in                                           0
out                                    1.69766
nmid                                 0.0398745
vin#branch                                   0
vdd#branch                        -2.04756e-12

 Reference value :  4.82567e-08
 Reference value :  1.10010e-07
No. of Data Rows : 60044

  Measurements for Transient Analysis

tphl                =  5.32626e-10 targ=  2.71746e-09 trig=  2.18483e-09
tplh                =  2.47091e-10 targ=  2.28016e-08 trig=  2.25545e-08
i_vdd_avg           =  -4.57879e-06 from=  5.00000e-09 to=  1.10000e-07
power_avg_uw        =  7.77323e+00


Total analysis time (seconds) = 0.467532

Total elapsed time (seconds) = 0.535 

Total DRAM available = 16384.000 MB.
DRAM currently available =  198.422 MB.
Maximum ngspice program size =   12.562 MB.
Current ngspice program size =   11.938 MB.

