
Note: No compatibility mode selected!


Circuit: XOR2 seed characterization sample 4013022

Doing analysis at TEMP = 29.172500 and TNOM = 27.000000

Using SPARSE 1.3 as Direct Linear Solver

Initial Transient Solution
--------------------------

Node                                   Voltage
----                                   -------
vdd                                    1.95533
in                                           0
b                                      1.95533
abar                                   1.95533
bbar                               1.57165e-09
out                                    1.95533
vb#branch                                    0
vin#branch                         2.04693e-12
vdd#branch                        -1.19367e-11

 Reference value :  2.62093e-08
 Reference value :  6.11651e-08
 Reference value :  9.42791e-08
No. of Data Rows : 60044

  Measurements for Transient Analysis

tphl                =  4.17451e-10 targ=  2.64752e-09 trig=  2.23007e-09
tplh                =  5.40371e-10 targ=  2.32306e-08 trig=  2.26902e-08
i_vdd_avg           =  -6.57297e-06 from=  5.00000e-09 to=  1.10001e-07
power_avg_uw        =  1.28523e+01


Total analysis time (seconds) = 0.837501

Total elapsed time (seconds) = 0.910 

Total DRAM available = 16384.000 MB.
DRAM currently available =  214.422 MB.
Maximum ngspice program size =   12.578 MB.
Current ngspice program size =   11.750 MB.

