
Note: No compatibility mode selected!


Circuit: INV seed characterization sample 4013003

Doing analysis at TEMP = 32.561100 and TNOM = 27.000000

Using SPARSE 1.3 as Direct Linear Solver

Initial Transient Solution
--------------------------

Node                                   Voltage
----                                   -------
vdd                                     1.7107
in                                           0
out                                     1.7107
vin#branch                                   0
vdd#branch                        -1.73504e-12

 Reference value :  7.48926e-08
No. of Data Rows : 60044

  Measurements for Transient Analysis

tphl                =  9.50051e-10 targ=  3.16095e-09 trig=  2.21090e-09
tplh                =  1.21132e-09 targ=  2.38440e-08 trig=  2.26327e-08
i_vdd_avg           =  -4.00688e-06 from=  5.00000e-09 to=  1.10001e-07
power_avg_uw        =  6.85457e+00


Total analysis time (seconds) = 0.286046

Total elapsed time (seconds) = 0.354 

Total DRAM available = 16384.000 MB.
DRAM currently available =  190.062 MB.
Maximum ngspice program size =   12.562 MB.
Current ngspice program size =   12.219 MB.

