
Note: No compatibility mode selected!


Circuit: NOR2 seed characterization sample 4013034

Doing analysis at TEMP = 54.041600 and TNOM = 27.000000

Using SPARSE 1.3 as Direct Linear Solver

Initial Transient Solution
--------------------------

Node                                   Voltage
----                                   -------
vdd                                    1.77557
in                                           0
out                                    1.77557
pmid                                   1.77557
vin#branch                                   0
vdd#branch                        -3.93172e-12

 Reference value :  4.03849e-08
 Reference value :  9.71099e-08
No. of Data Rows : 60041

  Measurements for Transient Analysis

tphl                =  2.09451e-10 targ=  2.31492e-09 trig=  2.10547e-09
tplh                =  8.91071e-10 targ=  2.32075e-08 trig=  2.23164e-08
i_vdd_avg           =  -3.69232e-06 from=  5.00000e-09 to=  1.10001e-07
power_avg_uw        =  6.55598e+00


Total analysis time (seconds) = 0.510453

Total elapsed time (seconds) = 0.588 

Total DRAM available = 16384.000 MB.
DRAM currently available =  239.953 MB.
Maximum ngspice program size =   12.562 MB.
Current ngspice program size =   11.828 MB.

