
Note: No compatibility mode selected!


Circuit: NAND2 seed characterization sample 4013026

Doing analysis at TEMP = 2.323200 and TNOM = 27.000000

Using SPARSE 1.3 as Direct Linear Solver

Initial Transient Solution
--------------------------

Node                                   Voltage
----                                   -------
vdd                                    1.73181
in                                           0
out                                    1.73181
nmid                               0.000322277
vin#branch                                   0
vdd#branch                        -1.74272e-12

 Reference value :  4.14300e-08
 Reference value :  1.00312e-07
No. of Data Rows : 60047

  Measurements for Transient Analysis

tphl                =  8.26000e-10 targ=  2.87374e-09 trig=  2.04774e-09
tplh                =  3.30704e-10 targ=  2.24739e-08 trig=  2.21432e-08
i_vdd_avg           =  -2.72146e-06 from=  5.00000e-09 to=  1.10002e-07
power_avg_uw        =  4.71305e+00


Total analysis time (seconds) = 0.494769

Total elapsed time (seconds) = 0.573 

Total DRAM available = 16384.000 MB.
DRAM currently available =  219.391 MB.
Maximum ngspice program size =   12.562 MB.
Current ngspice program size =   11.844 MB.

