
Note: No compatibility mode selected!


Circuit: INV seed characterization sample 4013028

Doing analysis at TEMP = 89.567500 and TNOM = 27.000000

Using SPARSE 1.3 as Direct Linear Solver

Initial Transient Solution
--------------------------

Node                                   Voltage
----                                   -------
vdd                                    1.67471
in                                           0
out                                    1.67471
vin#branch                                   0
vdd#branch                        -3.38185e-12

 Reference value :  6.49878e-08
No. of Data Rows : 60047

  Measurements for Transient Analysis

tphl                =  1.67907e-10 targ=  2.39460e-09 trig=  2.22669e-09
tplh                =  2.11428e-10 targ=  2.28915e-08 trig=  2.26801e-08
i_vdd_avg           =  -5.37782e-07 from=  5.00000e-09 to=  1.10002e-07
power_avg_uw        =  9.00628e-01


Total analysis time (seconds) = 0.318197

Total elapsed time (seconds) = 0.394 

Total DRAM available = 16384.000 MB.
DRAM currently available =  210.625 MB.
Maximum ngspice program size =   12.562 MB.
Current ngspice program size =   11.766 MB.

