
Note: No compatibility mode selected!


Circuit: XOR2 seed characterization sample 4220015

Doing analysis at TEMP = 45.317800 and TNOM = 27.000000

Using SPARSE 1.3 as Direct Linear Solver

Initial Transient Solution
--------------------------

Node                                   Voltage
----                                   -------
vdd                                    1.64977
in                                           0
b                                      1.64977
abar                                   1.64977
bbar                                2.9131e-09
out                                    1.64977
vb#branch                                    0
vin#branch                         3.27054e-12
vdd#branch                        -1.27845e-11

 Reference value :  2.59928e-08
 Reference value :  6.05179e-08
 Reference value :  9.87799e-08
No. of Data Rows : 60041

  Measurements for Transient Analysis

tphl                =  2.43845e-10 targ=  2.32730e-09 trig=  2.08345e-09
tplh                =  2.69207e-10 targ=  2.25196e-08 trig=  2.22504e-08
i_vdd_avg           =  -1.82148e-06 from=  5.00000e-09 to=  1.10001e-07
power_avg_uw        =  3.00503e+00


Total analysis time (seconds) = 0.795178

Total elapsed time (seconds) = 0.868 

Total DRAM available = 16384.000 MB.
DRAM currently available =  179.453 MB.
Maximum ngspice program size =   12.578 MB.
Current ngspice program size =   11.969 MB.

