
Note: No compatibility mode selected!


Circuit: INV seed characterization sample 4220036

Doing analysis at TEMP = -17.183300 and TNOM = 27.000000

Using SPARSE 1.3 as Direct Linear Solver

Initial Transient Solution
--------------------------

Node                                   Voltage
----                                   -------
vdd                                    1.95496
in                                           0
out                                    1.95496
vin#branch                                   0
vdd#branch                         -1.9823e-12

 Reference value :  7.44353e-08
No. of Data Rows : 60047

  Measurements for Transient Analysis

tphl                =  7.93591e-11 targ=  2.15394e-09 trig=  2.07458e-09
tplh                =  1.12152e-10 targ=  2.23359e-08 trig=  2.22237e-08
i_vdd_avg           =  -2.19633e-06 from=  5.00000e-09 to=  1.10001e-07
power_avg_uw        =  4.29374e+00


Total analysis time (seconds) = 0.290288

Total elapsed time (seconds) = 0.359 

Total DRAM available = 16384.000 MB.
DRAM currently available =  183.688 MB.
Maximum ngspice program size =   12.609 MB.
Current ngspice program size =   11.953 MB.

