
Note: No compatibility mode selected!


Circuit: INV seed characterization sample 4220010

Doing analysis at TEMP = 68.950200 and TNOM = 27.000000

Using SPARSE 1.3 as Direct Linear Solver

Initial Transient Solution
--------------------------

Node                                   Voltage
----                                   -------
vdd                                     1.6473
in                                           0
out                                     1.6473
vin#branch                                   0
vdd#branch                        -1.87569e-11

 Reference value :  7.10949e-08
No. of Data Rows : 60041

  Measurements for Transient Analysis

tphl                =  8.61036e-11 targ=  2.32458e-09 trig=  2.23848e-09
tplh                =  1.31033e-10 targ=  2.28465e-08 trig=  2.27154e-08
i_vdd_avg           =  -7.74853e-07 from=  5.00000e-09 to=  1.10001e-07
power_avg_uw        =  1.27642e+00


Total analysis time (seconds) = 0.300387

Total elapsed time (seconds) = 0.372 

Total DRAM available = 16384.000 MB.
DRAM currently available =  156.672 MB.
Maximum ngspice program size =   12.562 MB.
Current ngspice program size =   11.906 MB.

