
Note: No compatibility mode selected!


Circuit: NOR2 seed characterization sample 4220039

Doing analysis at TEMP = 78.079700 and TNOM = 27.000000

Using SPARSE 1.3 as Direct Linear Solver

Initial Transient Solution
--------------------------

Node                                   Voltage
----                                   -------
vdd                                    1.67801
in                                           0
out                                    1.67801
pmid                                   1.67801
vin#branch                                   0
vdd#branch                        -2.60853e-11

 Reference value :  4.74384e-08
 Reference value :  1.09166e-07
No. of Data Rows : 60047

  Measurements for Transient Analysis

tphl                =  6.97453e-11 targ=  2.09445e-09 trig=  2.02470e-09
tplh                =  3.66047e-10 targ=  2.24401e-08 trig=  2.20741e-08
i_vdd_avg           =  -1.70541e-06 from=  5.00000e-09 to=  1.10002e-07
power_avg_uw        =  2.86169e+00


Total analysis time (seconds) = 0.470089

Total elapsed time (seconds) = 0.538 

Total DRAM available = 16384.000 MB.
DRAM currently available =  186.047 MB.
Maximum ngspice program size =   12.562 MB.
Current ngspice program size =   11.844 MB.

