
Note: No compatibility mode selected!


Circuit: NOR2 seed characterization sample 4220002

Doing analysis at TEMP = 57.726600 and TNOM = 27.000000

Using SPARSE 1.3 as Direct Linear Solver

Initial Transient Solution
--------------------------

Node                                   Voltage
----                                   -------
vdd                                    1.92747
in                                           0
out                                    1.92747
pmid                                   1.92747
vin#branch                                   0
vdd#branch                        -2.64565e-11

 Reference value :  4.69104e-08
 Reference value :  1.08224e-07
No. of Data Rows : 60047

  Measurements for Transient Analysis

tphl                =  4.53823e-11 targ=  2.14308e-09 trig=  2.09769e-09
tplh                =  1.28528e-10 targ=  2.24216e-08 trig=  2.22931e-08
i_vdd_avg           =  -1.73594e-06 from=  5.00000e-09 to=  1.10002e-07
power_avg_uw        =  3.34597e+00


Total analysis time (seconds) = 0.472502

Total elapsed time (seconds) = 0.542 

Total DRAM available = 16384.000 MB.
DRAM currently available =  191.750 MB.
Maximum ngspice program size =   12.562 MB.
Current ngspice program size =   11.625 MB.

