
Note: No compatibility mode selected!


Circuit: XOR2 seed characterization sample 4220042

Doing analysis at TEMP = 26.039400 and TNOM = 27.000000

Using SPARSE 1.3 as Direct Linear Solver

Initial Transient Solution
--------------------------

Node                                   Voltage
----                                   -------
vdd                                    1.97424
in                                           0
b                                      1.97424
abar                                   1.97424
bbar                               1.18262e-09
out                                    1.97424
vb#branch                                    0
vin#branch                         3.18854e-12
vdd#branch                        -1.40458e-11

 Reference value :  2.33795e-08
 Reference value :  5.59262e-08
 Reference value :  9.12102e-08
No. of Data Rows : 60047

  Measurements for Transient Analysis

tphl                =  2.65807e-10 targ=  2.42042e-09 trig=  2.15462e-09
tplh                =  3.08850e-10 targ=  2.27727e-08 trig=  2.24638e-08
i_vdd_avg           =  -6.53604e-06 from=  5.00000e-09 to=  1.10001e-07
power_avg_uw        =  1.29037e+01


Total analysis time (seconds) = 0.848518

Total elapsed time (seconds) = 0.927 

Total DRAM available = 16384.000 MB.
DRAM currently available =  221.719 MB.
Maximum ngspice program size =   12.578 MB.
Current ngspice program size =   11.828 MB.

