
Note: No compatibility mode selected!


Circuit: NAND2 seed characterization sample 4220034

Doing analysis at TEMP = 49.932200 and TNOM = 27.000000

Using SPARSE 1.3 as Direct Linear Solver

Initial Transient Solution
--------------------------

Node                                   Voltage
----                                   -------
vdd                                    1.88494
in                                           0
out                                    1.88494
nmid                                 0.0502267
vin#branch                                   0
vdd#branch                        -2.94386e-12

 Reference value :  4.68905e-08
 Reference value :  1.09974e-07
No. of Data Rows : 60044

  Measurements for Transient Analysis

tphl                =  2.49241e-10 targ=  2.31900e-09 trig=  2.06976e-09
tplh                =  9.44509e-11 targ=  2.23037e-08 trig=  2.22093e-08
i_vdd_avg           =  -5.33309e-06 from=  5.00000e-09 to=  1.10000e-07
power_avg_uw        =  1.00526e+01


Total analysis time (seconds) = 0.4591

Total elapsed time (seconds) = 0.529 

Total DRAM available = 16384.000 MB.
DRAM currently available =  203.859 MB.
Maximum ngspice program size =   12.875 MB.
Current ngspice program size =   12.875 MB.

