
Note: No compatibility mode selected!


Circuit: INV seed characterization sample 4220035

Doing analysis at TEMP = 99.125900 and TNOM = 27.000000

Using SPARSE 1.3 as Direct Linear Solver

Initial Transient Solution
--------------------------

Node                                   Voltage
----                                   -------
vdd                                    1.89089
in                                           0
out                                    1.89089
vin#branch                                   0
vdd#branch                        -6.10822e-11

 Reference value :  7.11832e-08
No. of Data Rows : 60047

  Measurements for Transient Analysis

tphl                =  2.03121e-10 targ=  2.45168e-09 trig=  2.24856e-09
tplh                =  2.48074e-10 targ=  2.29937e-08 trig=  2.27457e-08
i_vdd_avg           =  -2.54188e-06 from=  5.00000e-09 to=  1.10001e-07
power_avg_uw        =  4.80641e+00


Total analysis time (seconds) = 0.297597

Total elapsed time (seconds) = 0.369 

Total DRAM available = 16384.000 MB.
DRAM currently available =  192.531 MB.
Maximum ngspice program size =   12.562 MB.
Current ngspice program size =   11.781 MB.

