
Note: No compatibility mode selected!


Circuit: NAND2 seed characterization sample 4220025

Doing analysis at TEMP = -18.332500 and TNOM = 27.000000

Using SPARSE 1.3 as Direct Linear Solver

Initial Transient Solution
--------------------------

Node                                   Voltage
----                                   -------
vdd                                    1.89757
in                                           0
out                                    1.89757
nmid                                0.00374074
vin#branch                                   0
vdd#branch                        -1.91836e-12

 Reference value :  3.96701e-08
 Reference value :  9.39066e-08
No. of Data Rows : 60044

  Measurements for Transient Analysis

tphl                =  2.74914e-10 targ=  2.41369e-09 trig=  2.13878e-09
tplh                =  1.81476e-10 targ=  2.25978e-08 trig=  2.24163e-08
i_vdd_avg           =  -5.01157e-06 from=  5.00000e-09 to=  1.10000e-07
power_avg_uw        =  9.50981e+00


Total analysis time (seconds) = 0.520808

Total elapsed time (seconds) = 0.599 

Total DRAM available = 16384.000 MB.
DRAM currently available =  174.547 MB.
Maximum ngspice program size =   12.562 MB.
Current ngspice program size =   11.625 MB.

