
Note: No compatibility mode selected!


Circuit: INV seed characterization sample 4220014

Doing analysis at TEMP = 83.780400 and TNOM = 27.000000

Using SPARSE 1.3 as Direct Linear Solver

Initial Transient Solution
--------------------------

Node                                   Voltage
----                                   -------
vdd                                    1.85121
in                                           0
out                                    1.85121
vin#branch                                   0
vdd#branch                        -5.42448e-11

 Reference value :  7.37688e-08
No. of Data Rows : 60044

  Measurements for Transient Analysis

tphl                =  1.58457e-10 targ=  2.33041e-09 trig=  2.17196e-09
tplh                =  2.25818e-10 targ=  2.27417e-08 trig=  2.25159e-08
i_vdd_avg           =  -3.87598e-06 from=  5.00000e-09 to=  1.10001e-07
power_avg_uw        =  7.17525e+00


Total analysis time (seconds) = 0.295077

Total elapsed time (seconds) = 0.364 

Total DRAM available = 16384.000 MB.
DRAM currently available =  157.656 MB.
Maximum ngspice program size =   12.562 MB.
Current ngspice program size =   11.625 MB.

