
Note: No compatibility mode selected!


Circuit: INV seed characterization sample 4220031

Doing analysis at TEMP = 58.536000 and TNOM = 27.000000

Using SPARSE 1.3 as Direct Linear Solver

Initial Transient Solution
--------------------------

Node                                   Voltage
----                                   -------
vdd                                    1.93446
in                                           0
out                                    1.93446
vin#branch                                   0
vdd#branch                        -6.40503e-12

 Reference value :  7.18842e-08
No. of Data Rows : 60044

  Measurements for Transient Analysis

tphl                =  2.65903e-10 targ=  2.42070e-09 trig=  2.15479e-09
tplh                =  2.55608e-10 targ=  2.27200e-08 trig=  2.24644e-08
i_vdd_avg           =  -4.39558e-06 from=  5.00000e-09 to=  1.10000e-07
power_avg_uw        =  8.50308e+00


Total analysis time (seconds) = 0.297306

Total elapsed time (seconds) = 0.369 

Total DRAM available = 16384.000 MB.
DRAM currently available =  162.828 MB.
Maximum ngspice program size =   12.562 MB.
Current ngspice program size =   11.656 MB.

