
Note: No compatibility mode selected!


Circuit: XOR2 seed characterization sample 4220033

Doing analysis at TEMP = 12.612300 and TNOM = 27.000000

Using SPARSE 1.3 as Direct Linear Solver

Initial Transient Solution
--------------------------

Node                                   Voltage
----                                   -------
vdd                                    1.65866
in                                           0
b                                      1.65866
abar                                   1.65866
bbar                               1.94686e-09
out                                    1.65866
vb#branch                                    0
vin#branch                         1.82607e-12
vdd#branch                        -1.02888e-11

 Reference value :  2.63886e-08
 Reference value :  6.21898e-08
 Reference value :  1.01494e-07
No. of Data Rows : 60041

  Measurements for Transient Analysis

tphl                =  4.88651e-10 targ=  2.56305e-09 trig=  2.07440e-09
tplh                =  7.61149e-10 targ=  2.29843e-08 trig=  2.22232e-08
i_vdd_avg           =  -5.71005e-06 from=  5.00000e-09 to=  1.10001e-07
power_avg_uw        =  9.47104e+00


Total analysis time (seconds) = 0.77833

Total elapsed time (seconds) = 0.850 

Total DRAM available = 16384.000 MB.
DRAM currently available =  215.812 MB.
Maximum ngspice program size =   12.578 MB.
Current ngspice program size =   11.812 MB.

