
Note: No compatibility mode selected!


Circuit: NAND2 seed characterization sample 4220024

Doing analysis at TEMP = 93.499000 and TNOM = 27.000000

Using SPARSE 1.3 as Direct Linear Solver

Initial Transient Solution
--------------------------

Node                                   Voltage
----                                   -------
vdd                                    1.79935
in                                           0
out                                    1.79935
nmid                                 0.0532471
vin#branch                                   0
vdd#branch                        -1.27082e-11

 Reference value :  3.98996e-08
 Reference value :  9.26583e-08
No. of Data Rows : 60047

  Measurements for Transient Analysis

tphl                =  1.53830e-10 targ=  2.23148e-09 trig=  2.07765e-09
tplh                =  7.89417e-11 targ=  2.23119e-08 trig=  2.22330e-08
i_vdd_avg           =  -1.71846e-06 from=  5.00000e-09 to=  1.10002e-07
power_avg_uw        =  3.09211e+00


Total analysis time (seconds) = 0.546443

Total elapsed time (seconds) = 0.623 

Total DRAM available = 16384.000 MB.
DRAM currently available =  157.938 MB.
Maximum ngspice program size =   12.562 MB.
Current ngspice program size =   11.625 MB.

