
Note: No compatibility mode selected!


Circuit: NAND2 seed characterization sample 4220041

Doing analysis at TEMP = -10.434700 and TNOM = 27.000000

Using SPARSE 1.3 as Direct Linear Solver

Initial Transient Solution
--------------------------

Node                                   Voltage
----                                   -------
vdd                                    1.87351
in                                           0
out                                    1.87351
nmid                                0.00655546
vin#branch                                   0
vdd#branch                         -1.9023e-12

 Reference value :  4.16907e-08
 Reference value :  9.89276e-08
No. of Data Rows : 60069

  Measurements for Transient Analysis

tphl                =  2.66642e-10 targ=  2.27199e-09 trig=  2.00535e-09
tplh                =  7.04880e-11 targ=  2.20865e-08 trig=  2.20160e-08
i_vdd_avg           =  -5.12460e-06 from=  5.00000e-09 to=  1.10000e-07
power_avg_uw        =  9.60099e+00


Total analysis time (seconds) = 0.502567

Total elapsed time (seconds) = 0.579 

Total DRAM available = 16384.000 MB.
DRAM currently available =  223.875 MB.
Maximum ngspice program size =   12.594 MB.
Current ngspice program size =   11.875 MB.

