
Note: No compatibility mode selected!


Circuit: NAND2 seed characterization sample 4220048

Doing analysis at TEMP = -4.598420 and TNOM = 27.000000

Using SPARSE 1.3 as Direct Linear Solver

Initial Transient Solution
--------------------------

Node                                   Voltage
----                                   -------
vdd                                    1.68986
in                                           0
out                                    1.68986
nmid                                0.00835809
vin#branch                                   0
vdd#branch                        -1.72404e-12

 Reference value :  4.49280e-08
 Reference value :  1.04455e-07
No. of Data Rows : 60047

  Measurements for Transient Analysis

tphl                =  2.02895e-10 targ=  2.44440e-09 trig=  2.24151e-09
tplh                =  1.32276e-10 targ=  2.28568e-08 trig=  2.27245e-08
i_vdd_avg           =  -1.08843e-06 from=  5.00000e-09 to=  1.10001e-07
power_avg_uw        =  1.83930e+00


Total analysis time (seconds) = 0.489696

Total elapsed time (seconds) = 0.563 

Total DRAM available = 16384.000 MB.
DRAM currently available =  212.297 MB.
Maximum ngspice program size =   12.562 MB.
Current ngspice program size =   11.625 MB.

