
Note: No compatibility mode selected!


Circuit: NAND2 seed characterization sample 4220030

Doing analysis at TEMP = 57.693000 and TNOM = 27.000000

Using SPARSE 1.3 as Direct Linear Solver

Initial Transient Solution
--------------------------

Node                                   Voltage
----                                   -------
vdd                                    1.80928
in                                           0
out                                    1.80928
nmid                                 0.0480976
vin#branch                                   0
vdd#branch                        -2.52916e-12

 Reference value :  4.56344e-08
 Reference value :  1.06142e-07
No. of Data Rows : 60047

  Measurements for Transient Analysis

tphl                =  2.61964e-10 targ=  2.47166e-09 trig=  2.20970e-09
tplh                =  1.58099e-10 targ=  2.27872e-08 trig=  2.26291e-08
i_vdd_avg           =  -1.56976e-06 from=  5.00000e-09 to=  1.10002e-07
power_avg_uw        =  2.84013e+00


Total analysis time (seconds) = 0.478071

Total elapsed time (seconds) = 0.550 

Total DRAM available = 16384.000 MB.
DRAM currently available =  171.406 MB.
Maximum ngspice program size =   12.562 MB.
Current ngspice program size =   11.781 MB.

