
Note: No compatibility mode selected!


Circuit: XOR2 seed characterization sample 4220027

Doing analysis at TEMP = 83.465700 and TNOM = 27.000000

Using SPARSE 1.3 as Direct Linear Solver

Initial Transient Solution
--------------------------

Node                                   Voltage
----                                   -------
vdd                                    1.92361
in                                           0
b                                      1.92361
abar                                   1.92361
bbar                               1.23989e-08
out                                    1.92361
vb#branch                                    0
vin#branch                          9.5851e-12
vdd#branch                        -2.61519e-11

 Reference value :  2.23175e-08
 Reference value :  5.31860e-08
 Reference value :  8.82020e-08
No. of Data Rows : 60041

  Measurements for Transient Analysis

tphl                =  1.36897e-09 targ=  3.52844e-09 trig=  2.15948e-09
tplh                =  1.98874e-09 targ=  2.44672e-08 trig=  2.24784e-08
i_vdd_avg           =  -5.42051e-06 from=  5.00000e-09 to=  1.10001e-07
power_avg_uw        =  1.04270e+01


Total analysis time (seconds) = 0.867466

Total elapsed time (seconds) = 0.947 

Total DRAM available = 16384.000 MB.
DRAM currently available =  185.156 MB.
Maximum ngspice program size =   12.578 MB.
Current ngspice program size =   11.719 MB.

