
Note: No compatibility mode selected!


Circuit: INV seed characterization sample 4220004

Doing analysis at TEMP = 72.112200 and TNOM = 27.000000

Using SPARSE 1.3 as Direct Linear Solver

Initial Transient Solution
--------------------------

Node                                   Voltage
----                                   -------
vdd                                    1.78039
in                                           0
out                                    1.78039
vin#branch                                   0
vdd#branch                        -1.61716e-11

 Reference value :  7.57673e-08
No. of Data Rows : 60044

  Measurements for Transient Analysis

tphl                =  1.47517e-10 targ=  2.18158e-09 trig=  2.03407e-09
tplh                =  1.34348e-10 targ=  2.22365e-08 trig=  2.21022e-08
i_vdd_avg           =  -3.34797e-06 from=  5.00000e-09 to=  1.10001e-07
power_avg_uw        =  5.96069e+00


Total analysis time (seconds) = 0.285569

Total elapsed time (seconds) = 0.353 

Total DRAM available = 16384.000 MB.
DRAM currently available =  191.750 MB.
Maximum ngspice program size =   12.562 MB.
Current ngspice program size =   11.844 MB.

