
Note: No compatibility mode selected!


Circuit: NOR2 seed characterization sample 4001003

Doing analysis at TEMP = 49.036600 and TNOM = 27.000000

Using SPARSE 1.3 as Direct Linear Solver

Initial Transient Solution
--------------------------

Node                                   Voltage
----                                   -------
vdd                                    1.97128
in                                           0
out                                    1.97128
pmid                                   1.97128
vin#branch                                   0
vdd#branch                        -1.39441e-10

 Reference value :  4.52131e-08
 Reference value :  1.04799e-07
No. of Data Rows : 60044

  Measurements for Transient Analysis

tphl                =  8.98961e-11 targ=  2.20892e-09 trig=  2.11903e-09
tplh                =  2.85654e-10 targ=  2.26427e-08 trig=  2.23571e-08
i_vdd_avg           =  -4.72916e-06 from=  5.00000e-09 to=  1.10001e-07
power_avg_uw        =  9.32250e+00


Total analysis time (seconds) = 0.485233

Total elapsed time (seconds) = 0.557 

Total DRAM available = 16384.000 MB.
DRAM currently available =  361.797 MB.
Maximum ngspice program size =   12.562 MB.
Current ngspice program size =   11.656 MB.

