
Note: No compatibility mode selected!


Circuit: XOR2 seed characterization sample 4001020

Doing analysis at TEMP = 63.379700 and TNOM = 27.000000

Using SPARSE 1.3 as Direct Linear Solver

Initial Transient Solution
--------------------------

Node                                   Voltage
----                                   -------
vdd                                    1.79981
in                                           0
b                                      1.79981
abar                                   1.79981
bbar                                8.5814e-09
out                                    1.79981
vb#branch                                    0
vin#branch                         1.99049e-10
vdd#branch                        -3.61988e-10

 Reference value :  2.61262e-08
 Reference value :  6.06966e-08
 Reference value :  9.75666e-08
No. of Data Rows : 60044

  Measurements for Transient Analysis

tphl                =  2.58669e-10 targ=  2.40546e-09 trig=  2.14679e-09
tplh                =  2.93107e-10 targ=  2.27335e-08 trig=  2.24404e-08
i_vdd_avg           =  -6.41099e-06 from=  5.00000e-09 to=  1.10000e-07
power_avg_uw        =  1.15386e+01


Total analysis time (seconds) = 0.809344

Total elapsed time (seconds) = 0.882 

Total DRAM available = 16384.000 MB.
DRAM currently available =  324.469 MB.
Maximum ngspice program size =   12.609 MB.
Current ngspice program size =   12.094 MB.

