
Note: No compatibility mode selected!


Circuit: NOR2 seed characterization sample 4001015

Doing analysis at TEMP = 90.339800 and TNOM = 27.000000

Using SPARSE 1.3 as Direct Linear Solver

Initial Transient Solution
--------------------------

Node                                   Voltage
----                                   -------
vdd                                     1.8044
in                                           0
out                                     1.8044
pmid                                    1.8044
vin#branch                                   0
vdd#branch                        -6.92005e-10

 Reference value :  4.58430e-08
 Reference value :  1.05613e-07
No. of Data Rows : 60044

  Measurements for Transient Analysis

tphl                =  1.56335e-10 targ=  2.35332e-09 trig=  2.19699e-09
tplh                =  4.65770e-10 targ=  2.30567e-08 trig=  2.25910e-08
i_vdd_avg           =  -4.41715e-06 from=  5.00000e-09 to=  1.10001e-07
power_avg_uw        =  7.97030e+00


Total analysis time (seconds) = 0.481493

Total elapsed time (seconds) = 0.553 

Total DRAM available = 16384.000 MB.
DRAM currently available =  315.625 MB.
Maximum ngspice program size =   12.562 MB.
Current ngspice program size =   11.625 MB.

