
Note: No compatibility mode selected!


Circuit: NAND2 seed characterization sample 4001010

Doing analysis at TEMP = 53.945100 and TNOM = 27.000000

Using SPARSE 1.3 as Direct Linear Solver

Initial Transient Solution
--------------------------

Node                                   Voltage
----                                   -------
vdd                                    1.70527
in                                           0
out                                    1.70527
nmid                                 0.0536175
vin#branch                                   0
vdd#branch                        -1.75547e-11

 Reference value :  4.61857e-08
 Reference value :  1.06928e-07
No. of Data Rows : 60041

  Measurements for Transient Analysis

tphl                =  1.27283e-10 targ=  2.25963e-09 trig=  2.13235e-09
tplh                =  5.84326e-11 targ=  2.24555e-08 trig=  2.23970e-08
i_vdd_avg           =  -1.69127e-06 from=  5.00000e-09 to=  1.10000e-07
power_avg_uw        =  2.88408e+00


Total analysis time (seconds) = 0.473384

Total elapsed time (seconds) = 0.545 

Total DRAM available = 16384.000 MB.
DRAM currently available =  357.891 MB.
Maximum ngspice program size =   12.562 MB.
Current ngspice program size =   11.625 MB.

