
Note: No compatibility mode selected!


Circuit: XOR2 seed characterization sample 4001028

Doing analysis at TEMP = -10.017500 and TNOM = 27.000000

Using SPARSE 1.3 as Direct Linear Solver

Initial Transient Solution
--------------------------

Node                                   Voltage
----                                   -------
vdd                                    1.74061
in                                           0
b                                      1.74061
abar                                   1.74061
bbar                               1.47079e-09
out                                    1.74061
vb#branch                                    0
vin#branch                         2.27268e-12
vdd#branch                        -1.14217e-11

 Reference value :  2.50513e-08
 Reference value :  5.95392e-08
 Reference value :  9.49392e-08
No. of Data Rows : 60044

  Measurements for Transient Analysis

tphl                =  2.72294e-10 targ=  2.49838e-09 trig=  2.22608e-09
tplh                =  2.85796e-10 targ=  2.29640e-08 trig=  2.26782e-08
i_vdd_avg           =  -3.66859e-06 from=  5.00000e-09 to=  1.10001e-07
power_avg_uw        =  6.38559e+00


Total analysis time (seconds) = 0.82656

Total elapsed time (seconds) = 0.905 

Total DRAM available = 16384.000 MB.
DRAM currently available =  249.297 MB.
Maximum ngspice program size =   12.859 MB.
Current ngspice program size =   12.047 MB.

