
Note: No compatibility mode selected!


Circuit: INV seed characterization sample 4001033

Doing analysis at TEMP = 50.776500 and TNOM = 27.000000

Using SPARSE 1.3 as Direct Linear Solver

Initial Transient Solution
--------------------------

Node                                   Voltage
----                                   -------
vdd                                    1.96808
in                                           0
out                                    1.96808
vin#branch                                   0
vdd#branch                        -8.36948e-11

 Reference value :  6.71028e-08
No. of Data Rows : 60041

  Measurements for Transient Analysis

tphl                =  1.21727e-10 targ=  2.18018e-09 trig=  2.05845e-09
tplh                =  1.18912e-10 targ=  2.22943e-08 trig=  2.21754e-08
i_vdd_avg           =  -5.12312e-06 from=  5.00000e-09 to=  1.10001e-07
power_avg_uw        =  1.00827e+01


Total analysis time (seconds) = 0.303006

Total elapsed time (seconds) = 0.383 

Total DRAM available = 16384.000 MB.
DRAM currently available =  212.219 MB.
Maximum ngspice program size =   13.297 MB.
Current ngspice program size =   12.812 MB.

