
Note: No compatibility mode selected!


Circuit: NAND2 seed characterization sample 4001042

Doing analysis at TEMP = 37.530500 and TNOM = 27.000000

Using SPARSE 1.3 as Direct Linear Solver

Initial Transient Solution
--------------------------

Node                                   Voltage
----                                   -------
vdd                                    1.91729
in                                           0
out                                    1.91729
nmid                                 0.0566545
vin#branch                                   0
vdd#branch                        -4.62387e-12

 Reference value :  4.55162e-08
 Reference value :  1.06343e-07
No. of Data Rows : 60047

  Measurements for Transient Analysis

tphl                =  3.27106e-10 targ=  2.45069e-09 trig=  2.12359e-09
tplh                =  1.91492e-10 targ=  2.25623e-08 trig=  2.23708e-08
i_vdd_avg           =  -5.14735e-06 from=  5.00000e-09 to=  1.10001e-07
power_avg_uw        =  9.86896e+00


Total analysis time (seconds) = 0.476041

Total elapsed time (seconds) = 0.549 

Total DRAM available = 16384.000 MB.
DRAM currently available =  242.234 MB.
Maximum ngspice program size =   12.641 MB.
Current ngspice program size =   12.641 MB.

