
Note: No compatibility mode selected!


Circuit: NOR2 seed characterization sample 4001039

Doing analysis at TEMP = 9.169790 and TNOM = 27.000000

Using SPARSE 1.3 as Direct Linear Solver

Initial Transient Solution
--------------------------

Node                                   Voltage
----                                   -------
vdd                                    1.67611
in                                           0
out                                    1.67611
pmid                                   1.67611
vin#branch                                   0
vdd#branch                        -6.04768e-12

 Reference value :  4.49765e-08
 Reference value :  1.04528e-07
No. of Data Rows : 60047

  Measurements for Transient Analysis

tphl                =  1.12885e-10 targ=  2.21063e-09 trig=  2.09774e-09
tplh                =  5.05365e-10 targ=  2.27986e-08 trig=  2.22932e-08
i_vdd_avg           =  -2.66652e-06 from=  5.00000e-09 to=  1.10002e-07
power_avg_uw        =  4.46938e+00


Total analysis time (seconds) = 0.485047

Total elapsed time (seconds) = 0.557 

Total DRAM available = 16384.000 MB.
DRAM currently available =  268.375 MB.
Maximum ngspice program size =   12.562 MB.
Current ngspice program size =   11.656 MB.

