
Note: No compatibility mode selected!


Circuit: INV seed characterization sample 4001013

Doing analysis at TEMP = 91.267900 and TNOM = 27.000000

Using SPARSE 1.3 as Direct Linear Solver

Initial Transient Solution
--------------------------

Node                                   Voltage
----                                   -------
vdd                                    1.91434
in                                           0
out                                    1.91434
vin#branch                                   0
vdd#branch                        -1.11638e-10

 Reference value :  7.25520e-08
No. of Data Rows : 60047

  Measurements for Transient Analysis

tphl                =  6.72944e-10 targ=  2.74768e-09 trig=  2.07474e-09
tplh                =  1.03681e-09 targ=  2.32610e-08 trig=  2.22242e-08
i_vdd_avg           =  -4.97865e-06 from=  5.00000e-09 to=  1.10002e-07
power_avg_uw        =  9.53084e+00


Total analysis time (seconds) = 0.294859

Total elapsed time (seconds) = 0.366 

Total DRAM available = 16384.000 MB.
DRAM currently available =  315.625 MB.
Maximum ngspice program size =   12.562 MB.
Current ngspice program size =   11.594 MB.

