
Note: No compatibility mode selected!


Circuit: XOR2 seed characterization sample 4001008

Doing analysis at TEMP = 40.733100 and TNOM = 27.000000

Using SPARSE 1.3 as Direct Linear Solver

Initial Transient Solution
--------------------------

Node                                   Voltage
----                                   -------
vdd                                    1.94142
in                                           0
b                                      1.94142
abar                                   1.94142
bbar                               6.19086e-09
out                                    1.94142
vb#branch                                    0
vin#branch                         1.23861e-11
vdd#branch                        -3.12814e-11

 Reference value :  2.57147e-08
 Reference value :  5.97668e-08
 Reference value :  9.58068e-08
No. of Data Rows : 60044

  Measurements for Transient Analysis

tphl                =  4.13578e-10 targ=  2.46849e-09 trig=  2.05491e-09
tplh                =  4.75320e-10 targ=  2.26401e-08 trig=  2.21647e-08
i_vdd_avg           =  -3.80847e-06 from=  5.00000e-09 to=  1.10001e-07
power_avg_uw        =  7.39384e+00


Total analysis time (seconds) = 0.82404

Total elapsed time (seconds) = 0.896 

Total DRAM available = 16384.000 MB.
DRAM currently available =  367.078 MB.
Maximum ngspice program size =   12.562 MB.
Current ngspice program size =   12.000 MB.

