
Note: No compatibility mode selected!


Circuit: NAND2 seed characterization sample 4001026

Doing analysis at TEMP = 96.928100 and TNOM = 27.000000

Using SPARSE 1.3 as Direct Linear Solver

Initial Transient Solution
--------------------------

Node                                   Voltage
----                                   -------
vdd                                    1.66626
in                                           0
out                                    1.66626
nmid                                 0.0551197
vin#branch                                   0
vdd#branch                        -1.02422e-10

 Reference value :  3.94937e-08
 Reference value :  9.99353e-08
No. of Data Rows : 60044

  Measurements for Transient Analysis

tphl                =  3.46387e-10 targ=  2.54455e-09 trig=  2.19817e-09
tplh                =  2.01189e-10 targ=  2.27957e-08 trig=  2.25945e-08
i_vdd_avg           =  -3.68974e-06 from=  5.00000e-09 to=  1.10002e-07
power_avg_uw        =  6.14807e+00


Total analysis time (seconds) = 0.48027

Total elapsed time (seconds) = 0.575 

Total DRAM available = 16384.000 MB.
DRAM currently available =  249.297 MB.
Maximum ngspice program size =   13.375 MB.
Current ngspice program size =   12.266 MB.

