
Note: No compatibility mode selected!


Circuit: XOR2 seed characterization sample 4001048

Doing analysis at TEMP = 88.582600 and TNOM = 27.000000

Using SPARSE 1.3 as Direct Linear Solver

Initial Transient Solution
--------------------------

Node                                   Voltage
----                                   -------
vdd                                    1.73453
in                                           0
b                                      1.73453
abar                                   1.73453
bbar                               3.74358e-08
out                                    1.73453
vb#branch                                    0
vin#branch                         5.71237e-10
vdd#branch                        -1.02325e-09

 Reference value :  2.59557e-08
 Reference value :  6.02454e-08
 Reference value :  9.63014e-08
No. of Data Rows : 60044

  Measurements for Transient Analysis

tphl                =  3.09517e-10 targ=  2.50870e-09 trig=  2.19918e-09
tplh                =  3.92737e-10 targ=  2.29903e-08 trig=  2.25975e-08
i_vdd_avg           =  -5.40463e-06 from=  5.00000e-09 to=  1.10002e-07
power_avg_uw        =  9.37450e+00


Total analysis time (seconds) = 0.821888

Total elapsed time (seconds) = 0.895 

Total DRAM available = 16384.000 MB.
DRAM currently available =  232.094 MB.
Maximum ngspice program size =   12.578 MB.
Current ngspice program size =   12.578 MB.

