
Note: No compatibility mode selected!


Circuit: NOR2 seed characterization sample 4001011

Doing analysis at TEMP = 74.847300 and TNOM = 27.000000

Using SPARSE 1.3 as Direct Linear Solver

Initial Transient Solution
--------------------------

Node                                   Voltage
----                                   -------
vdd                                    1.62291
in                                           0
out                                    1.62291
pmid                                   1.62291
vin#branch                                   0
vdd#branch                        -5.09185e-10

 Reference value :  4.60148e-08
 Reference value :  1.05871e-07
No. of Data Rows : 60044

  Measurements for Transient Analysis

tphl                =  6.21920e-11 targ=  2.26509e-09 trig=  2.20290e-09
tplh                =  2.37175e-10 targ=  2.28459e-08 trig=  2.26087e-08
i_vdd_avg           =  -1.67844e-06 from=  5.00000e-09 to=  1.10001e-07
power_avg_uw        =  2.72396e+00


Total analysis time (seconds) = 0.481455

Total elapsed time (seconds) = 0.552 

Total DRAM available = 16384.000 MB.
DRAM currently available =  357.891 MB.
Maximum ngspice program size =   12.562 MB.
Current ngspice program size =   11.656 MB.

