
Note: No compatibility mode selected!


Circuit: NOR2 seed characterization sample 4210035

Doing analysis at TEMP = -19.572200 and TNOM = 27.000000

Using SPARSE 1.3 as Direct Linear Solver

Initial Transient Solution
--------------------------

Node                                   Voltage
----                                   -------
vdd                                    1.68905
in                                           0
out                                    1.68905
pmid                                   1.68905
vin#branch                                   0
vdd#branch                        -3.39827e-12

 Reference value :  4.72370e-08
 Reference value :  1.08015e-07
No. of Data Rows : 60044

  Measurements for Transient Analysis

tphl                =  2.72336e-10 targ=  2.49133e-09 trig=  2.21900e-09
tplh                =  9.96669e-10 targ=  2.36537e-08 trig=  2.26570e-08
i_vdd_avg           =  -2.35247e-06 from=  5.00000e-09 to=  1.10001e-07
power_avg_uw        =  3.97344e+00


Total analysis time (seconds) = 0.475992

Total elapsed time (seconds) = 0.544 

Total DRAM available = 16384.000 MB.
DRAM currently available =  324.234 MB.
Maximum ngspice program size =   12.562 MB.
Current ngspice program size =   12.438 MB.

