
Note: No compatibility mode selected!


Circuit: INV seed characterization sample 4210010

Doing analysis at TEMP = 41.781200 and TNOM = 27.000000

Using SPARSE 1.3 as Direct Linear Solver

Initial Transient Solution
--------------------------

Node                                   Voltage
----                                   -------
vdd                                    1.89305
in                                           0
out                                    1.89305
vin#branch                                   0
vdd#branch                        -2.02691e-12

 Reference value :  6.60072e-08
No. of Data Rows : 60044

  Measurements for Transient Analysis

tphl                =  2.36986e-10 targ=  2.37603e-09 trig=  2.13904e-09
tplh                =  3.77218e-10 targ=  2.27943e-08 trig=  2.24171e-08
i_vdd_avg           =  -3.49013e-06 from=  5.00000e-09 to=  1.10001e-07
power_avg_uw        =  6.60700e+00


Total analysis time (seconds) = 0.309178

Total elapsed time (seconds) = 0.388 

Total DRAM available = 16384.000 MB.
DRAM currently available =  250.547 MB.
Maximum ngspice program size =   12.594 MB.
Current ngspice program size =   12.250 MB.

