
Note: No compatibility mode selected!


Circuit: NOR2 seed characterization sample 4210045

Doing analysis at TEMP = 28.780300 and TNOM = 27.000000

Using SPARSE 1.3 as Direct Linear Solver

Initial Transient Solution
--------------------------

Node                                   Voltage
----                                   -------
vdd                                    1.83237
in                                           0
out                                    1.83237
pmid                                   1.83237
vin#branch                                   0
vdd#branch                        -3.77937e-12

 Reference value :  3.59323e-08
 Reference value :  9.51047e-08
No. of Data Rows : 60044

  Measurements for Transient Analysis

tphl                =  6.75054e-11 targ=  2.17534e-09 trig=  2.10784e-09
tplh                =  1.88586e-10 targ=  2.25121e-08 trig=  2.23235e-08
i_vdd_avg           =  -9.48821e-07 from=  5.00000e-09 to=  1.10000e-07
power_avg_uw        =  1.73859e+00


Total analysis time (seconds) = 0.491742

Total elapsed time (seconds) = 0.596 

Total DRAM available = 16384.000 MB.
DRAM currently available =  274.719 MB.
Maximum ngspice program size =   13.109 MB.
Current ngspice program size =   12.531 MB.

