
Note: No compatibility mode selected!


Circuit: INV seed characterization sample 4210008

Doing analysis at TEMP = 79.271800 and TNOM = 27.000000

Using SPARSE 1.3 as Direct Linear Solver

Initial Transient Solution
--------------------------

Node                                   Voltage
----                                   -------
vdd                                    1.72948
in                                           0
out                                    1.72948
vin#branch                                   0
vdd#branch                        -4.65186e-12

 Reference value :  7.38353e-08
No. of Data Rows : 60047

  Measurements for Transient Analysis

tphl                =  2.71298e-10 targ=  2.39387e-09 trig=  2.12257e-09
tplh                =  4.06729e-10 targ=  2.27745e-08 trig=  2.23677e-08
i_vdd_avg           =  -5.54339e-06 from=  5.00000e-09 to=  1.10001e-07
power_avg_uw        =  9.58719e+00


Total analysis time (seconds) = 0.291082

Total elapsed time (seconds) = 0.361 

Total DRAM available = 16384.000 MB.
DRAM currently available =  225.906 MB.
Maximum ngspice program size =   12.562 MB.
Current ngspice program size =   12.406 MB.

