
Note: No compatibility mode selected!


Circuit: XOR2 seed characterization sample 4210024

Doing analysis at TEMP = 8.491760 and TNOM = 27.000000

Using SPARSE 1.3 as Direct Linear Solver

Initial Transient Solution
--------------------------

Node                                   Voltage
----                                   -------
vdd                                    1.74305
in                                           0
b                                      1.74305
abar                                   1.74305
bbar                               9.52229e-10
out                                    1.74305
vb#branch                                    0
vin#branch                         1.76935e-12
vdd#branch                        -1.05473e-11

 Reference value :  2.27691e-08
 Reference value :  5.36691e-08
 Reference value :  8.52871e-08
 Reference value :  1.19653e-07
No. of Data Rows : 60044

  Measurements for Transient Analysis

tphl                =  2.32985e-10 targ=  2.46003e-09 trig=  2.22704e-09
tplh                =  3.41518e-10 targ=  2.30226e-08 trig=  2.26811e-08
i_vdd_avg           =  -2.63955e-06 from=  5.00000e-09 to=  1.10001e-07
power_avg_uw        =  4.60087e+00


Total analysis time (seconds) = 0.917383

Total elapsed time (seconds) = 0.995 

Total DRAM available = 16384.000 MB.
DRAM currently available =  271.891 MB.
Maximum ngspice program size =   12.578 MB.
Current ngspice program size =   11.656 MB.

