
Note: No compatibility mode selected!


Circuit: NOR2 seed characterization sample 4210014

Doing analysis at TEMP = 99.336700 and TNOM = 27.000000

Using SPARSE 1.3 as Direct Linear Solver

Initial Transient Solution
--------------------------

Node                                   Voltage
----                                   -------
vdd                                    1.87877
in                                           0
out                                    1.87877
pmid                                   1.87877
vin#branch                                   0
vdd#branch                        -1.96169e-11

 Reference value :  3.81934e-08
 Reference value :  9.11542e-08
No. of Data Rows : 60047

  Measurements for Transient Analysis

tphl                =  1.17576e-10 targ=  2.15017e-09 trig=  2.03260e-09
tplh                =  5.96520e-10 targ=  2.26943e-08 trig=  2.20978e-08
i_vdd_avg           =  -4.80357e-06 from=  5.00000e-09 to=  1.10001e-07
power_avg_uw        =  9.02480e+00


Total analysis time (seconds) = 0.532528

Total elapsed time (seconds) = 0.613 

Total DRAM available = 16384.000 MB.
DRAM currently available =  287.141 MB.
Maximum ngspice program size =   12.562 MB.
Current ngspice program size =   11.625 MB.

