
Note: No compatibility mode selected!


Circuit: NOR2 seed characterization sample 4210015

Doing analysis at TEMP = 35.350200 and TNOM = 27.000000

Using SPARSE 1.3 as Direct Linear Solver

Initial Transient Solution
--------------------------

Node                                   Voltage
----                                   -------
vdd                                    1.66491
in                                           0
out                                    1.66491
pmid                                   1.66491
vin#branch                                   0
vdd#branch                        -3.51851e-12

 Reference value :  3.81135e-08
 Reference value :  9.14952e-08
No. of Data Rows : 60044

  Measurements for Transient Analysis

tphl                =  1.59295e-10 targ=  2.35342e-09 trig=  2.19412e-09
tplh                =  4.34148e-10 targ=  2.30165e-08 trig=  2.25824e-08
i_vdd_avg           =  -2.30933e-06 from=  5.00000e-09 to=  1.10001e-07
power_avg_uw        =  3.84483e+00


Total analysis time (seconds) = 0.531383

Total elapsed time (seconds) = 0.613 

Total DRAM available = 16384.000 MB.
DRAM currently available =  287.141 MB.
Maximum ngspice program size =   12.688 MB.
Current ngspice program size =   12.688 MB.

