
Note: No compatibility mode selected!


Circuit: XOR2 seed characterization sample 4210002

Doing analysis at TEMP = -11.444500 and TNOM = 27.000000

Using SPARSE 1.3 as Direct Linear Solver

Initial Transient Solution
--------------------------

Node                                   Voltage
----                                   -------
vdd                                    1.82504
in                                           0
b                                      1.82504
abar                                   1.82504
bbar                               9.33624e-10
out                                    1.82504
vb#branch                                    0
vin#branch                         1.83697e-12
vdd#branch                        -1.10137e-11

 Reference value :  2.69272e-08
 Reference value :  6.24371e-08
 Reference value :  9.99411e-08
No. of Data Rows : 60044

  Measurements for Transient Analysis

tphl                =  2.87011e-10 targ=  2.47507e-09 trig=  2.18806e-09
tplh                =  3.75848e-10 targ=  2.29400e-08 trig=  2.25642e-08
i_vdd_avg           =  -5.08163e-06 from=  5.00000e-09 to=  1.10001e-07
power_avg_uw        =  9.27418e+00


Total analysis time (seconds) = 0.793535

Total elapsed time (seconds) = 0.863 

Total DRAM available = 16384.000 MB.
DRAM currently available =  242.500 MB.
Maximum ngspice program size =   12.578 MB.
Current ngspice program size =   11.922 MB.

