
Note: No compatibility mode selected!


Circuit: INV seed characterization sample 4210043

Doing analysis at TEMP = 23.337400 and TNOM = 27.000000

Using SPARSE 1.3 as Direct Linear Solver

Initial Transient Solution
--------------------------

Node                                   Voltage
----                                   -------
vdd                                    1.93128
in                                           0
out                                    1.93128
vin#branch                                   0
vdd#branch                        -1.97654e-12

 Reference value :  6.33758e-08
No. of Data Rows : 60044

  Measurements for Transient Analysis

tphl                =  2.93200e-10 targ=  2.53339e-09 trig=  2.24019e-09
tplh                =  3.28762e-10 targ=  2.30493e-08 trig=  2.27206e-08
i_vdd_avg           =  -4.96690e-06 from=  5.00000e-09 to=  1.10002e-07
power_avg_uw        =  9.59248e+00


Total analysis time (seconds) = 0.2983

Total elapsed time (seconds) = 0.391 

Total DRAM available = 16384.000 MB.
DRAM currently available =  311.906 MB.
Maximum ngspice program size =   12.984 MB.
Current ngspice program size =   12.203 MB.

