
Note: No compatibility mode selected!


Circuit: NOR2 seed characterization sample 4210017

Doing analysis at TEMP = 5.925490 and TNOM = 27.000000

Using SPARSE 1.3 as Direct Linear Solver

Initial Transient Solution
--------------------------

Node                                   Voltage
----                                   -------
vdd                                     1.9304
in                                           0
out                                     1.9304
pmid                                    1.9304
vin#branch                                   0
vdd#branch                        -3.89634e-12

 Reference value :  3.22344e-08
 Reference value :  8.52897e-08
No. of Data Rows : 60041

  Measurements for Transient Analysis

tphl                =  1.32974e-10 targ=  2.29231e-09 trig=  2.15934e-09
tplh                =  5.14214e-10 targ=  2.29922e-08 trig=  2.24780e-08
i_vdd_avg           =  -3.71550e-06 from=  5.00000e-09 to=  1.10000e-07
power_avg_uw        =  7.17239e+00


Total analysis time (seconds) = 0.534045

Total elapsed time (seconds) = 0.638 

Total DRAM available = 16384.000 MB.
DRAM currently available =  297.797 MB.
Maximum ngspice program size =   13.078 MB.
Current ngspice program size =   13.078 MB.

