
Note: No compatibility mode selected!


Circuit: NOR2 seed characterization sample 4210016

Doing analysis at TEMP = 13.809200 and TNOM = 27.000000

Using SPARSE 1.3 as Direct Linear Solver

Initial Transient Solution
--------------------------

Node                                   Voltage
----                                   -------
vdd                                     1.8073
in                                           0
out                                     1.8073
pmid                                    1.8073
vin#branch                                   0
vdd#branch                        -3.67186e-12

 Reference value :  3.92213e-08
 Reference value :  9.23072e-08
No. of Data Rows : 60044

  Measurements for Transient Analysis

tphl                =  5.06333e-11 targ=  2.09171e-09 trig=  2.04108e-09
tplh                =  1.65499e-10 targ=  2.22887e-08 trig=  2.21232e-08
i_vdd_avg           =  -1.76868e-06 from=  5.00000e-09 to=  1.10001e-07
power_avg_uw        =  3.19654e+00


Total analysis time (seconds) = 0.531417

Total elapsed time (seconds) = 0.609 

Total DRAM available = 16384.000 MB.
DRAM currently available =  287.141 MB.
Maximum ngspice program size =   12.594 MB.
Current ngspice program size =   11.625 MB.

