
Note: No compatibility mode selected!


Circuit: INV seed characterization sample 4210044

Doing analysis at TEMP = 36.084600 and TNOM = 27.000000

Using SPARSE 1.3 as Direct Linear Solver

Initial Transient Solution
--------------------------

Node                                   Voltage
----                                   -------
vdd                                    1.77087
in                                           0
out                                    1.77087
vin#branch                                   0
vdd#branch                        -1.89938e-12

 Reference value :  6.22992e-08
No. of Data Rows : 60044

  Measurements for Transient Analysis

tphl                =  1.78420e-10 targ=  2.22446e-09 trig=  2.04604e-09
tplh                =  2.52312e-10 targ=  2.23904e-08 trig=  2.21381e-08
i_vdd_avg           =  -4.20210e-06 from=  5.00000e-09 to=  1.10001e-07
power_avg_uw        =  7.44137e+00


Total analysis time (seconds) = 0.297343

Total elapsed time (seconds) = 0.392 

Total DRAM available = 16384.000 MB.
DRAM currently available =  311.906 MB.
Maximum ngspice program size =   13.047 MB.
Current ngspice program size =   12.344 MB.

