
Note: No compatibility mode selected!


Circuit: INV seed characterization sample 4210048

Doing analysis at TEMP = 85.901000 and TNOM = 27.000000

Using SPARSE 1.3 as Direct Linear Solver

Initial Transient Solution
--------------------------

Node                                   Voltage
----                                   -------
vdd                                    1.65965
in                                           0
out                                    1.65965
vin#branch                                   0
vdd#branch                        -4.87264e-12

 Reference value :  6.88693e-08
No. of Data Rows : 60044

  Measurements for Transient Analysis

tphl                =  1.76877e-10 targ=  2.27595e-09 trig=  2.09907e-09
tplh                =  2.73046e-10 targ=  2.25703e-08 trig=  2.22972e-08
i_vdd_avg           =  -2.28886e-06 from=  5.00000e-09 to=  1.10001e-07
power_avg_uw        =  3.79870e+00


Total analysis time (seconds) = 0.30135

Total elapsed time (seconds) = 0.378 

Total DRAM available = 16384.000 MB.
DRAM currently available =  274.719 MB.
Maximum ngspice program size =   12.562 MB.
Current ngspice program size =   11.938 MB.

