
Note: No compatibility mode selected!


Circuit: XOR2 seed characterization sample 4210032

Doing analysis at TEMP = -5.417120 and TNOM = 27.000000

Using SPARSE 1.3 as Direct Linear Solver

Initial Transient Solution
--------------------------

Node                                   Voltage
----                                   -------
vdd                                    1.80297
in                                           0
b                                      1.80297
abar                                   1.80297
bbar                               7.80401e-09
out                                    1.80297
vb#branch                                    0
vin#branch                         1.81338e-12
vdd#branch                        -1.08786e-11

 Reference value :  2.58524e-08
 Reference value :  6.02077e-08
 Reference value :  9.68677e-08
No. of Data Rows : 60041

  Measurements for Transient Analysis

tphl                =  7.67354e-10 targ=  2.90569e-09 trig=  2.13834e-09
tplh                =  1.20027e-09 targ=  2.36153e-08 trig=  2.24150e-08
i_vdd_avg           =  -2.38273e-06 from=  5.00000e-09 to=  1.10000e-07
power_avg_uw        =  4.29600e+00


Total analysis time (seconds) = 0.809336

Total elapsed time (seconds) = 0.884 

Total DRAM available = 16384.000 MB.
DRAM currently available =  284.531 MB.
Maximum ngspice program size =   12.578 MB.
Current ngspice program size =   11.812 MB.

