
Note: No compatibility mode selected!


Circuit: XOR2 seed characterization sample 4210041

Doing analysis at TEMP = 0.512787 and TNOM = 27.000000

Using SPARSE 1.3 as Direct Linear Solver

Initial Transient Solution
--------------------------

Node                                   Voltage
----                                   -------
vdd                                     1.9454
in                                           0
b                                       1.9454
abar                                    1.9454
bbar                               1.03514e-09
out                                     1.9454
vb#branch                                    0
vin#branch                         1.96289e-12
vdd#branch                        -1.17457e-11

 Reference value :  2.63999e-08
 Reference value :  6.10865e-08
 Reference value :  9.89405e-08
No. of Data Rows : 60047

  Measurements for Transient Analysis

tphl                =  2.45137e-10 targ=  2.43787e-09 trig=  2.19273e-09
tplh                =  2.72567e-10 targ=  2.28508e-08 trig=  2.25782e-08
i_vdd_avg           =  -4.23131e-06 from=  5.00000e-09 to=  1.10002e-07
power_avg_uw        =  8.23159e+00


Total analysis time (seconds) = 0.805737

Total elapsed time (seconds) = 0.878 

Total DRAM available = 16384.000 MB.
DRAM currently available =  274.719 MB.
Maximum ngspice program size =   12.578 MB.
Current ngspice program size =   12.031 MB.

