
Note: No compatibility mode selected!


Circuit: NAND2 seed characterization sample 4210038

Doing analysis at TEMP = -10.027800 and TNOM = 27.000000

Using SPARSE 1.3 as Direct Linear Solver

Initial Transient Solution
--------------------------

Node                                   Voltage
----                                   -------
vdd                                    1.90955
in                                           0
out                                    1.90955
nmid                               0.000279485
vin#branch                                   0
vdd#branch                        -1.92035e-12

 Reference value :  3.47248e-08
 Reference value :  9.06099e-08
No. of Data Rows : 60041

  Measurements for Transient Analysis

tphl                =  4.29300e-10 targ=  2.46675e-09 trig=  2.03745e-09
tplh                =  1.48430e-10 targ=  2.22608e-08 trig=  2.21123e-08
i_vdd_avg           =  -4.93229e-06 from=  5.00000e-09 to=  1.10001e-07
power_avg_uw        =  9.41845e+00


Total analysis time (seconds) = 0.511427

Total elapsed time (seconds) = 0.612 

Total DRAM available = 16384.000 MB.
DRAM currently available =  324.234 MB.
Maximum ngspice program size =   13.141 MB.
Current ngspice program size =   12.516 MB.

