
Note: No compatibility mode selected!


Circuit: NAND2 seed characterization sample 4210039

Doing analysis at TEMP = 63.541700 and TNOM = 27.000000

Using SPARSE 1.3 as Direct Linear Solver

Initial Transient Solution
--------------------------

Node                                   Voltage
----                                   -------
vdd                                     1.7658
in                                           0
out                                     1.7658
nmid                                 0.0394849
vin#branch                                   0
vdd#branch                        -2.07387e-12

 Reference value :  4.13792e-08
 Reference value :  9.73101e-08
No. of Data Rows : 60047

  Measurements for Transient Analysis

tphl                =  3.42014e-10 targ=  2.52455e-09 trig=  2.18254e-09
tplh                =  2.14447e-10 targ=  2.27621e-08 trig=  2.25476e-08
i_vdd_avg           =  -3.91400e-06 from=  5.00000e-09 to=  1.10001e-07
power_avg_uw        =  6.91135e+00


Total analysis time (seconds) = 0.509448

Total elapsed time (seconds) = 0.586 

Total DRAM available = 16384.000 MB.
DRAM currently available =  324.234 MB.
Maximum ngspice program size =   12.625 MB.
Current ngspice program size =   11.656 MB.

