
Note: Compatibility modes selected: hs a


Circuit: SKY130 library cell mux2_1 A0_to_X__A1=0,S=0

option SCALE: Scale is set to 1e-06 for instance and model parameters
Doing analysis at TEMP = 73.233106 and TNOM = 27.000000

Using KLU as Direct Linear Solver
 Reference value :  1.75714e-08
 Reference value :  7.22309e-08
 Reference value :  1.27174e-07
 Reference value :  1.81024e-07
 Reference value :  2.34871e-07
 Reference value :  2.88724e-07
No. of Data Rows : 68034

  Measurements for Transient Analysis

tplh                =  2.27249e-09 targ=  2.99317e-08 trig=  2.76592e-08
tphl                =  2.52850e-09 targ=  1.07506e-07 trig=  1.04978e-07
i_vdd_avg           =  -1.80448e-06 from=  1.00000e-08 to=  3.30004e-07
power_avg_uw        =  3.08396e+00


Total analysis time (seconds) = 1.56348

Total elapsed time (seconds) = 1.727 

Total DRAM available = 16384.000 MB.
DRAM currently available =  118.016 MB.
Maximum ngspice program size =   25.344 MB.
Current ngspice program size =   25.344 MB.

