
Note: Compatibility modes selected: hs a


Circuit: SKY130 library cell nor2_1 A_to_Y__B=0

option SCALE: Scale is set to 1e-06 for instance and model parameters
Doing analysis at TEMP = 112.448870 and TNOM = 27.000000

Using KLU as Direct Linear Solver
 Reference value :  4.51101e-08
 Reference value :  1.76788e-07
 Reference value :  3.24428e-07
No. of Data Rows : 68034

  Measurements for Transient Analysis

tphl                =  1.20256e-09 targ=  2.73114e-08 trig=  2.61088e-08
tplh                =  2.21619e-09 targ=  1.02543e-07 trig=  1.00326e-07
i_vdd_avg           =  -9.95871e-07 from=  1.00000e-08 to=  3.30003e-07
power_avg_uw        =  1.87015e+00


Total analysis time (seconds) = 0.621028

Total elapsed time (seconds) = 0.772 

Total DRAM available = 16384.000 MB.
DRAM currently available =  117.062 MB.
Maximum ngspice program size =   26.453 MB.
Current ngspice program size =   26.453 MB.

