
Note: Compatibility modes selected: hs a


Circuit: SKY130 library cell xor2_1 A_to_X__B=0

option SCALE: Scale is set to 1e-06 for instance and model parameters
Doing analysis at TEMP = -9.564932 and TNOM = 27.000000

Using KLU as Direct Linear Solver
 Reference value :  2.33664e-08
 Reference value :  9.85137e-08
 Reference value :  1.64010e-07
 Reference value :  2.37049e-07
 Reference value :  3.02795e-07
No. of Data Rows : 68032

  Measurements for Transient Analysis

tplh                =  4.01286e-10 targ=  2.58919e-08 trig=  2.54906e-08
tphl                =  6.59718e-10 targ=  9.91316e-08 trig=  9.84718e-08
i_vdd_avg           =  -2.28826e-07 from=  1.00000e-08 to=  3.30005e-07
power_avg_uw        =  4.51353e-01


Total analysis time (seconds) = 1.23117

Total elapsed time (seconds) = 1.389 

Total DRAM available = 16384.000 MB.
DRAM currently available =  145.734 MB.
Maximum ngspice program size =   27.547 MB.
Current ngspice program size =   27.547 MB.

