
Note: Compatibility modes selected: hs a


Circuit: SKY130 library cell aoi21_1 A1_to_Y__A2=1,B1=0

option SCALE: Scale is set to 1e-06 for instance and model parameters
Doing analysis at TEMP = -28.987888 and TNOM = 27.000000

Using KLU as Direct Linear Solver
 Reference value :  4.63977e-08
 Reference value :  1.55313e-07
 Reference value :  2.54663e-07
No. of Data Rows : 68032

  Measurements for Transient Analysis

tphl                =  2.14033e-09 targ=  3.20254e-08 trig=  2.98851e-08
tplh                =  4.56249e-09 targ=  1.16218e-07 trig=  1.11655e-07
i_vdd_avg           =  -4.59847e-07 from=  1.00000e-08 to=  3.30003e-07
power_avg_uw        =  7.85170e-01


Total analysis time (seconds) = 0.816588

Total elapsed time (seconds) = 0.954 

Total DRAM available = 16384.000 MB.
DRAM currently available =  253.703 MB.
Maximum ngspice program size =   25.078 MB.
Current ngspice program size =   25.078 MB.

