
Note: Compatibility modes selected: hs a


Circuit: SKY130 library cell aoi21_1 A1_to_Y__A2=1,B1=0

option SCALE: Scale is set to 1e-06 for instance and model parameters
Doing analysis at TEMP = 40.278353 and TNOM = 27.000000

Using KLU as Direct Linear Solver
 Reference value :  3.31010e-08
 Reference value :  1.33900e-07
 Reference value :  2.35936e-07
No. of Data Rows : 68034

  Measurements for Transient Analysis

tphl                =  1.04561e-09 targ=  2.58124e-08 trig=  2.47668e-08
tplh                =  2.32261e-09 targ=  9.86229e-08 trig=  9.63003e-08
i_vdd_avg           =  -8.26958e-07 from=  1.00000e-08 to=  3.30005e-07
power_avg_uw        =  1.38487e+00


Total analysis time (seconds) = 0.844011

Total elapsed time (seconds) = 1.003 

Total DRAM available = 16384.000 MB.
DRAM currently available =  150.844 MB.
Maximum ngspice program size =   26.109 MB.
Current ngspice program size =   26.109 MB.

