
Note: Compatibility modes selected: hs a


Circuit: SKY130 library cell xor2_1 A_to_X__B=0

option SCALE: Scale is set to 1e-06 for instance and model parameters
Doing analysis at TEMP = 18.142336 and TNOM = 27.000000

Using KLU as Direct Linear Solver
 Reference value :  2.00064e-08
 Reference value :  8.26530e-08
 Reference value :  1.42034e-07
 Reference value :  2.02168e-07
 Reference value :  2.66683e-07
 Reference value :  3.32364e-07
No. of Data Rows : 68032

  Measurements for Transient Analysis

tplh                =  3.78785e-09 targ=  3.23981e-08 trig=  2.86103e-08
tphl                =  2.09795e-09 targ=  1.09929e-07 trig=  1.07831e-07
i_vdd_avg           =  -1.98333e-06 from=  1.00000e-08 to=  3.30004e-07
power_avg_uw        =  3.57876e+00


Total analysis time (seconds) = 1.40052

Total elapsed time (seconds) = 1.566 

Total DRAM available = 16384.000 MB.
DRAM currently available =  109.547 MB.
Maximum ngspice program size =   25.531 MB.
Current ngspice program size =   25.531 MB.

