
Note: Compatibility modes selected: hs a


Circuit: SKY130 library cell inv_4 A_to_Y

option SCALE: Scale is set to 1e-06 for instance and model parameters
Doing analysis at TEMP = 25.577803 and TNOM = 27.000000

Using KLU as Direct Linear Solver
 Reference value :  2.52975e-08
 Reference value :  1.10367e-07
 Reference value :  1.95483e-07
 Reference value :  2.74757e-07
No. of Data Rows : 68032

  Measurements for Transient Analysis

tphl                =  1.36315e-09 targ=  3.13481e-08 trig=  2.99850e-08
tplh                =  3.01386e-09 targ=  1.14969e-07 trig=  1.11955e-07
i_vdd_avg           =  -1.93530e-06 from=  1.00000e-08 to=  3.30002e-07
power_avg_uw        =  3.53247e+00


Total analysis time (seconds) = 1.0702

Total elapsed time (seconds) = 1.217 

Total DRAM available = 16384.000 MB.
DRAM currently available =  118.016 MB.
Maximum ngspice program size =   25.828 MB.
Current ngspice program size =   25.828 MB.

