
Note: Compatibility modes selected: hs a


Circuit: SKY130 library cell nand2_4 A_to_Y__B=1

option SCALE: Scale is set to 1e-06 for instance and model parameters
Doing analysis at TEMP = -32.793104 and TNOM = 27.000000

Using KLU as Direct Linear Solver
 Reference value :  1.34214e-08
 Reference value :  5.87801e-08
 Reference value :  1.00985e-07
 Reference value :  1.45188e-07
 Reference value :  1.90868e-07
 Reference value :  2.32765e-07
 Reference value :  2.78193e-07
 Reference value :  3.23908e-07
No. of Data Rows : 68034

  Measurements for Transient Analysis

tphl                =  1.37354e-09 targ=  2.95499e-08 trig=  2.81763e-08
tplh                =  2.73309e-09 targ=  1.09262e-07 trig=  1.06529e-07
i_vdd_avg           =  -1.68582e-06 from=  1.00000e-08 to=  3.30003e-07
power_avg_uw        =  3.05308e+00


Total analysis time (seconds) = 1.93503

Total elapsed time (seconds) = 2.092 

Total DRAM available = 16384.000 MB.
DRAM currently available =  175.125 MB.
Maximum ngspice program size =   26.656 MB.
Current ngspice program size =   26.656 MB.

