
Note: Compatibility modes selected: hs a


Circuit: SKY130 library cell aoi21_1 A1_to_Y__A2=1,B1=0

option SCALE: Scale is set to 1e-06 for instance and model parameters
Doing analysis at TEMP = -9.760786 and TNOM = 27.000000

Using KLU as Direct Linear Solver
 Reference value :  2.86625e-08
 Reference value :  1.32462e-07
 Reference value :  2.32077e-07
 Reference value :  3.39432e-07
No. of Data Rows : 68032

  Measurements for Transient Analysis

tphl                =  2.58393e-09 targ=  2.99213e-08 trig=  2.73374e-08
tplh                =  5.25918e-09 targ=  1.09271e-07 trig=  1.04012e-07
i_vdd_avg           =  -1.88662e-06 from=  1.00000e-08 to=  3.30002e-07
power_avg_uw        =  3.43806e+00


Total analysis time (seconds) = 0.833009

Total elapsed time (seconds) = 0.999 

Total DRAM available = 16384.000 MB.
DRAM currently available =  108.109 MB.
Maximum ngspice program size =   26.734 MB.
Current ngspice program size =   26.734 MB.

