
Note: Compatibility modes selected: hs a


Circuit: SKY130 library cell oai21_4 A1_to_Y__A2=0,B1=1

option SCALE: Scale is set to 1e-06 for instance and model parameters
Doing analysis at TEMP = 12.911520 and TNOM = 27.000000

Using KLU as Direct Linear Solver
 Reference value :  7.91140e-09
 Reference value :  3.74325e-08
 Reference value :  6.76375e-08
 Reference value :  9.68375e-08
 Reference value :  1.25802e-07
 Reference value :  1.53057e-07
 Reference value :  1.82382e-07
 Reference value :  2.11287e-07
 Reference value :  2.40642e-07
 Reference value :  2.69612e-07
 Reference value :  2.97327e-07
 Reference value :  3.28612e-07
No. of Data Rows : 68032

  Measurements for Transient Analysis

tphl                =  7.16698e-10 targ=  2.55767e-08 trig=  2.48600e-08
tplh                =  1.53847e-09 targ=  9.81184e-08 trig=  9.65800e-08
i_vdd_avg           =  -1.96598e-06 from=  1.00000e-08 to=  3.30002e-07
power_avg_uw        =  3.40646e+00


Total analysis time (seconds) = 2.94276

Total elapsed time (seconds) = 3.118 

Total DRAM available = 16384.000 MB.
DRAM currently available =   93.250 MB.
Maximum ngspice program size =   29.625 MB.
Current ngspice program size =   29.625 MB.

