
Note: Compatibility modes selected: hs a


Circuit: SKY130 library cell nor2_1 A_to_Y__B=0

option SCALE: Scale is set to 1e-06 for instance and model parameters
Doing analysis at TEMP = 63.872601 and TNOM = 27.000000

Using KLU as Direct Linear Solver
 Reference value :  5.40346e-08
 Reference value :  1.92548e-07
 Reference value :  3.31172e-07
No. of Data Rows : 68030

  Measurements for Transient Analysis

tphl                =  1.43870e-09 targ=  3.09798e-08 trig=  2.95411e-08
tplh                =  2.96737e-09 targ=  1.13591e-07 trig=  1.10623e-07
i_vdd_avg           =  -3.29913e-07 from=  1.00000e-08 to=  3.30002e-07
power_avg_uw        =  5.59603e-01


Total analysis time (seconds) = 0.624493

Total elapsed time (seconds) = 0.777 

Total DRAM available = 16384.000 MB.
DRAM currently available =  138.578 MB.
Maximum ngspice program size =   25.375 MB.
Current ngspice program size =   25.375 MB.

