
Note: Compatibility modes selected: hs a


Circuit: SKY130 library cell mux2_4 A0_to_X__A1=0,S=0

option SCALE: Scale is set to 1e-06 for instance and model parameters
Doing analysis at TEMP = -5.472840 and TNOM = 27.000000

Using KLU as Direct Linear Solver
 Reference value :  1.06714e-08
 Reference value :  5.04049e-08
 Reference value :  8.25499e-08
 Reference value :  1.20402e-07
 Reference value :  1.57577e-07
 Reference value :  1.95505e-07
 Reference value :  2.28570e-07
 Reference value :  2.64525e-07
 Reference value :  3.01687e-07
 Reference value :  3.39427e-07
No. of Data Rows : 68030

  Measurements for Transient Analysis

tplh                =  1.54640e-09 targ=  2.90101e-08 trig=  2.74637e-08
tphl                =  2.51670e-09 targ=  1.06908e-07 trig=  1.04391e-07
i_vdd_avg           =  -1.19483e-06 from=  1.00000e-08 to=  3.30002e-07
power_avg_uw        =  1.96061e+00


Total analysis time (seconds) = 2.37143

Total elapsed time (seconds) = 2.539 

Total DRAM available = 16384.000 MB.
DRAM currently available =  103.406 MB.
Maximum ngspice program size =   26.672 MB.
Current ngspice program size =   26.672 MB.

