
Note: Compatibility modes selected: hs a


Circuit: SKY130 library cell oai21_4 A1_to_Y__A2=0,B1=1

option SCALE: Scale is set to 1e-06 for instance and model parameters
Doing analysis at TEMP = 29.540118 and TNOM = 27.000000

Using KLU as Direct Linear Solver
 Reference value :  9.92140e-09
 Reference value :  3.95671e-08
 Reference value :  7.09371e-08
 Reference value :  1.02337e-07
 Reference value :  1.34802e-07
 Reference value :  1.67832e-07
 Reference value :  2.08712e-07
 Reference value :  2.52597e-07
 Reference value :  2.97162e-07
No. of Data Rows : 68032

  Measurements for Transient Analysis

tphl                =  7.90243e-10 targ=  2.73000e-08 trig=  2.65098e-08
tplh                =  1.63078e-09 targ=  1.03160e-07 trig=  1.01529e-07
i_vdd_avg           =  -1.55046e-06 from=  1.00000e-08 to=  3.30002e-07
power_avg_uw        =  2.98480e+00


Total analysis time (seconds) = 2.33539

Total elapsed time (seconds) = 2.496 

Total DRAM available = 16384.000 MB.
DRAM currently available =  238.234 MB.
Maximum ngspice program size =   24.828 MB.
Current ngspice program size =   24.828 MB.

