
Note: Compatibility modes selected: hs a


Circuit: SKY130 library cell mux2_4 A0_to_X__A1=0,S=0

option SCALE: Scale is set to 1e-06 for instance and model parameters
Doing analysis at TEMP = 102.828320 and TNOM = 27.000000

Using KLU as Direct Linear Solver
 Reference value :  1.06114e-08
 Reference value :  4.84546e-08
 Reference value :  8.64096e-08
 Reference value :  1.23422e-07
 Reference value :  1.56992e-07
 Reference value :  1.94570e-07
 Reference value :  2.30610e-07
 Reference value :  2.68175e-07
 Reference value :  3.07552e-07
No. of Data Rows : 68030

  Measurements for Transient Analysis

tplh                =  9.84302e-10 targ=  2.97929e-08 trig=  2.88086e-08
tphl                =  1.66758e-09 targ=  1.10093e-07 trig=  1.08426e-07
i_vdd_avg           =  -1.53504e-06 from=  1.00000e-08 to=  3.30002e-07
power_avg_uw        =  2.88676e+00


Total analysis time (seconds) = 2.3333

Total elapsed time (seconds) = 2.495 

Total DRAM available = 16384.000 MB.
DRAM currently available =  117.062 MB.
Maximum ngspice program size =   26.969 MB.
Current ngspice program size =   26.969 MB.

