
Note: Compatibility modes selected: hs a


Circuit: SKY130 library cell oai21_1 A1_to_Y__A2=0,B1=1

option SCALE: Scale is set to 1e-06 for instance and model parameters
Doing analysis at TEMP = 18.396579 and TNOM = 27.000000

Using KLU as Direct Linear Solver
 Reference value :  3.62662e-08
 Reference value :  1.36800e-07
 Reference value :  2.39911e-07
No. of Data Rows : 68034

  Measurements for Transient Analysis

tphl                =  1.88053e-09 targ=  3.03774e-08 trig=  2.84969e-08
tplh                =  3.69510e-09 targ=  1.11186e-07 trig=  1.07491e-07
i_vdd_avg           =  -7.98836e-07 from=  1.00000e-08 to=  3.30005e-07
power_avg_uw        =  1.44804e+00


Total analysis time (seconds) = 0.82533

Total elapsed time (seconds) = 0.980 

Total DRAM available = 16384.000 MB.
DRAM currently available =  117.062 MB.
Maximum ngspice program size =   25.312 MB.
Current ngspice program size =   25.312 MB.

