
Note: Compatibility modes selected: hs a


Circuit: SKY130 library cell aoi21_1 A1_to_Y__A2=1,B1=0

option SCALE: Scale is set to 1e-06 for instance and model parameters
Doing analysis at TEMP = 51.608210 and TNOM = 27.000000

Using KLU as Direct Linear Solver
 Reference value :  4.02879e-08
 Reference value :  1.41278e-07
 Reference value :  2.46858e-07
No. of Data Rows : 68032

  Measurements for Transient Analysis

tphl                =  2.91598e-09 targ=  3.14787e-08 trig=  2.85627e-08
tplh                =  4.81312e-09 targ=  1.12501e-07 trig=  1.07688e-07
i_vdd_avg           =  -1.30776e-06 from=  1.00000e-08 to=  3.30003e-07
power_avg_uw        =  2.28054e+00


Total analysis time (seconds) = 0.845634

Total elapsed time (seconds) = 0.994 

Total DRAM available = 16384.000 MB.
DRAM currently available =  133.562 MB.
Maximum ngspice program size =   24.500 MB.
Current ngspice program size =   24.500 MB.

