
Note: Compatibility modes selected: hs a


Circuit: SKY130 library cell nand3_1 A_to_Y__B=1,C=1

option SCALE: Scale is set to 1e-06 for instance and model parameters
Doing analysis at TEMP = 64.707685 and TNOM = 27.000000

Using KLU as Direct Linear Solver
 Reference value :  4.05738e-08
 Reference value :  1.44960e-07
 Reference value :  2.40629e-07
No. of Data Rows : 68030

  Measurements for Transient Analysis

tphl                =  1.68133e-09 targ=  2.76570e-08 trig=  2.59757e-08
tplh                =  1.84674e-09 targ=  1.01774e-07 trig=  9.99270e-08
i_vdd_avg           =  -5.41776e-07 from=  1.00000e-08 to=  3.30000e-07
power_avg_uw        =  8.83064e-01


Total analysis time (seconds) = 0.843777

Total elapsed time (seconds) = 0.984 

Total DRAM available = 16384.000 MB.
DRAM currently available =   79.547 MB.
Maximum ngspice program size =   26.000 MB.
Current ngspice program size =   26.000 MB.

