
Note: Compatibility modes selected: hs a


Circuit: SKY130 library cell nand2_4 A_to_Y__B=1

option SCALE: Scale is set to 1e-06 for instance and model parameters
Doing analysis at TEMP = 49.267986 and TNOM = 27.000000

Using KLU as Direct Linear Solver
 Reference value :  1.11614e-08
 Reference value :  5.47113e-08
 Reference value :  9.84463e-08
 Reference value :  1.39075e-07
 Reference value :  1.84608e-07
 Reference value :  2.28076e-07
 Reference value :  2.69830e-07
 Reference value :  3.13560e-07
No. of Data Rows : 68032

  Measurements for Transient Analysis

tphl                =  1.41037e-09 targ=  2.78398e-08 trig=  2.64294e-08
tplh                =  1.95054e-09 targ=  1.03239e-07 trig=  1.01288e-07
i_vdd_avg           =  -2.00900e-06 from=  1.00000e-08 to=  3.30000e-07
power_avg_uw        =  3.40995e+00


Total analysis time (seconds) = 1.98846

Total elapsed time (seconds) = 2.159 

Total DRAM available = 16384.000 MB.
DRAM currently available =  105.125 MB.
Maximum ngspice program size =   26.750 MB.
Current ngspice program size =   26.750 MB.

