
Note: Compatibility modes selected: hs a


Circuit: SKY130 library cell inv_1 A_to_Y

option SCALE: Scale is set to 1e-06 for instance and model parameters
Doing analysis at TEMP = 99.236576 and TNOM = 27.000000

Using KLU as Direct Linear Solver
 Reference value :  8.04141e-08
 Reference value :  3.09121e-07
No. of Data Rows : 68030

  Measurements for Transient Analysis

tphl                =  1.51732e-09 targ=  2.88681e-08 trig=  2.73508e-08
tplh                =  2.40102e-09 targ=  1.06453e-07 trig=  1.04052e-07
i_vdd_avg           =  -1.34693e-06 from=  1.00000e-08 to=  3.30001e-07
power_avg_uw        =  2.65720e+00


Total analysis time (seconds) = 0.366099

Total elapsed time (seconds) = 0.533 

Total DRAM available = 16384.000 MB.
DRAM currently available =  159.406 MB.
Maximum ngspice program size =   24.734 MB.
Current ngspice program size =   24.734 MB.

