
Note: Compatibility modes selected: hs a


Circuit: SKY130 library cell inv_1 A_to_Y

option SCALE: Scale is set to 1e-06 for instance and model parameters
Doing analysis at TEMP = 79.091975 and TNOM = 27.000000

Using KLU as Direct Linear Solver
 Reference value :  8.59432e-08
 Reference value :  3.28734e-07
No. of Data Rows : 68032

  Measurements for Transient Analysis

tphl                =  8.11786e-10 targ=  2.62721e-08 trig=  2.54603e-08
tplh                =  1.25317e-09 targ=  9.96342e-08 trig=  9.83810e-08
i_vdd_avg           =  -4.68156e-07 from=  1.00000e-08 to=  3.30004e-07
power_avg_uw        =  8.15085e-01


Total analysis time (seconds) = 0.364046

Total elapsed time (seconds) = 0.518 

Total DRAM available = 16384.000 MB.
DRAM currently available =  109.547 MB.
Maximum ngspice program size =   26.141 MB.
Current ngspice program size =   26.141 MB.

