
Note: Compatibility modes selected: hs a


Circuit: SKY130 library cell nor2_4 A_to_Y__B=0

option SCALE: Scale is set to 1e-06 for instance and model parameters
Doing analysis at TEMP = 75.465611 and TNOM = 27.000000

Using KLU as Direct Linear Solver
 Reference value :  1.21714e-08
 Reference value :  5.54260e-08
 Reference value :  9.75210e-08
 Reference value :  1.37664e-07
 Reference value :  1.79204e-07
 Reference value :  2.17586e-07
 Reference value :  2.60796e-07
 Reference value :  3.03209e-07
No. of Data Rows : 68034

  Measurements for Transient Analysis

tphl                =  1.48595e-09 targ=  2.90002e-08 trig=  2.75142e-08
tplh                =  2.74330e-09 targ=  1.07286e-07 trig=  1.04543e-07
i_vdd_avg           =  -1.85943e-06 from=  1.00000e-08 to=  3.30004e-07
power_avg_uw        =  3.07491e+00


Total analysis time (seconds) = 2.07987

Total elapsed time (seconds) = 2.246 

Total DRAM available = 16384.000 MB.
DRAM currently available =  150.844 MB.
Maximum ngspice program size =   27.484 MB.
Current ngspice program size =   27.484 MB.

