
Note: Compatibility modes selected: hs a


Circuit: SKY130 library cell nor2_4 A_to_Y__B=0

option SCALE: Scale is set to 1e-06 for instance and model parameters
Doing analysis at TEMP = 113.618690 and TNOM = 27.000000

Using KLU as Direct Linear Solver
 Reference value :  1.38264e-08
 Reference value :  5.77934e-08
 Reference value :  9.92993e-08
 Reference value :  1.45904e-07
 Reference value :  1.89558e-07
 Reference value :  2.31898e-07
 Reference value :  2.77189e-07
 Reference value :  3.18864e-07
No. of Data Rows : 68032

  Measurements for Transient Analysis

tphl                =  1.97348e-10 targ=  2.44053e-08 trig=  2.42079e-08
tplh                =  4.33719e-10 targ=  9.50575e-08 trig=  9.46238e-08
i_vdd_avg           =  -7.61495e-07 from=  1.00000e-08 to=  3.30004e-07
power_avg_uw        =  1.32116e+00


Total analysis time (seconds) = 1.98607

Total elapsed time (seconds) = 2.145 

Total DRAM available = 16384.000 MB.
DRAM currently available =  108.109 MB.
Maximum ngspice program size =   27.531 MB.
Current ngspice program size =   27.531 MB.

