
Note: Compatibility modes selected: hs a


Circuit: SKY130 library cell nand3_4 A_to_Y__B=1,C=1

option SCALE: Scale is set to 1e-06 for instance and model parameters
Doing analysis at TEMP = -9.296284 and TNOM = 27.000000

Using KLU as Direct Linear Solver
 Reference value :  7.75140e-09
 Reference value :  3.89674e-08
 Reference value :  6.85974e-08
 Reference value :  9.92974e-08
 Reference value :  1.28437e-07
 Reference value :  1.57057e-07
 Reference value :  1.85498e-07
 Reference value :  2.13847e-07
 Reference value :  2.42747e-07
 Reference value :  2.70122e-07
 Reference value :  2.99632e-07
 Reference value :  3.28802e-07
No. of Data Rows : 68032

  Measurements for Transient Analysis

tphl                =  1.21279e-09 targ=  2.66603e-08 trig=  2.54475e-08
tplh                =  1.55082e-09 targ=  9.98932e-08 trig=  9.83424e-08
i_vdd_avg           =  -2.28866e-06 from=  1.00000e-08 to=  3.30002e-07
power_avg_uw        =  3.96899e+00


Total analysis time (seconds) = 2.96572

Total elapsed time (seconds) = 3.139 

Total DRAM available = 16384.000 MB.
DRAM currently available =  105.047 MB.
Maximum ngspice program size =   28.625 MB.
Current ngspice program size =   28.625 MB.

