
Note: Compatibility modes selected: hs a


Circuit: SKY130 library cell aoi21_4 A1_to_Y__A2=1,B1=0

option SCALE: Scale is set to 1e-06 for instance and model parameters
Doing analysis at TEMP = 11.838381 and TNOM = 27.000000

Using KLU as Direct Linear Solver
 Reference value :  9.78140e-09
 Reference value :  3.87553e-08
 Reference value :  6.58603e-08
 Reference value :  9.39653e-08
 Reference value :  1.21393e-07
 Reference value :  1.49443e-07
 Reference value :  1.78238e-07
 Reference value :  2.08125e-07
 Reference value :  2.35845e-07
 Reference value :  2.64645e-07
 Reference value :  2.92433e-07
 Reference value :  3.20263e-07
No. of Data Rows : 68034

  Measurements for Transient Analysis

tphl                =  1.73569e-09 targ=  3.09171e-08 trig=  2.91814e-08
tplh                =  3.44022e-09 targ=  1.12984e-07 trig=  1.09544e-07
i_vdd_avg           =  -1.40675e-06 from=  1.00000e-08 to=  3.30003e-07
power_avg_uw        =  2.39620e+00


Total analysis time (seconds) = 3.03625

Total elapsed time (seconds) = 3.235 

Total DRAM available = 16384.000 MB.
DRAM currently available =  117.062 MB.
Maximum ngspice program size =   26.766 MB.
Current ngspice program size =   26.766 MB.

