
Note: Compatibility modes selected: hs a


Circuit: SKY130 library cell nor2_1 A_to_Y__B=0

option SCALE: Scale is set to 1e-06 for instance and model parameters
Doing analysis at TEMP = 3.813986 and TNOM = 27.000000

Using KLU as Direct Linear Solver
 Reference value :  5.69751e-08
 Reference value :  2.09080e-07
No. of Data Rows : 68034

  Measurements for Transient Analysis

tphl                =  4.35538e-10 targ=  2.46093e-08 trig=  2.41738e-08
tplh                =  1.95387e-09 targ=  9.64752e-08 trig=  9.45214e-08
i_vdd_avg           =  -1.36858e-06 from=  1.00000e-08 to=  3.30003e-07
power_avg_uw        =  2.68668e+00


Total analysis time (seconds) = 0.579226

Total elapsed time (seconds) = 0.721 

Total DRAM available = 16384.000 MB.
DRAM currently available =  143.688 MB.
Maximum ngspice program size =   26.766 MB.
Current ngspice program size =   26.766 MB.

