
Note: Compatibility modes selected: hs a


Circuit: SKY130 library cell oai21_4 A1_to_Y__A2=0,B1=1

option SCALE: Scale is set to 1e-06 for instance and model parameters
Doing analysis at TEMP = -36.205882 and TNOM = 27.000000

Using KLU as Direct Linear Solver
 Reference value :  7.06640e-09
 Reference value :  3.58828e-08
 Reference value :  6.65078e-08
 Reference value :  9.46178e-08
 Reference value :  1.23208e-07
 Reference value :  1.51778e-07
 Reference value :  1.78923e-07
 Reference value :  2.07473e-07
 Reference value :  2.35513e-07
 Reference value :  2.63923e-07
 Reference value :  2.94783e-07
 Reference value :  3.23083e-07
No. of Data Rows : 68032

  Measurements for Transient Analysis

tphl                =  7.58756e-10 targ=  2.78164e-08 trig=  2.70577e-08
tplh                =  1.89594e-09 targ=  1.05069e-07 trig=  1.03173e-07
i_vdd_avg           =  -6.54018e-07 from=  1.00000e-08 to=  3.30003e-07
power_avg_uw        =  1.17844e+00


Total analysis time (seconds) = 3.01441

Total elapsed time (seconds) = 3.197 

Total DRAM available = 16384.000 MB.
DRAM currently available =  146.688 MB.
Maximum ngspice program size =   28.000 MB.
Current ngspice program size =   28.000 MB.

