
Note: Compatibility modes selected: hs a


Circuit: SKY130 library cell inv_1 A_to_Y

option SCALE: Scale is set to 1e-06 for instance and model parameters
Doing analysis at TEMP = -12.907624 and TNOM = 27.000000

Using KLU as Direct Linear Solver
 Reference value :  7.79579e-08
 Reference value :  3.21898e-07
No. of Data Rows : 68032

  Measurements for Transient Analysis

tphl                =  6.26202e-10 targ=  2.91589e-08 trig=  2.85327e-08
tplh                =  1.94354e-09 targ=  1.09542e-07 trig=  1.07598e-07
i_vdd_avg           =  -1.90399e-07 from=  1.00000e-08 to=  3.30003e-07
power_avg_uw        =  3.54083e-01


Total analysis time (seconds) = 0.363547

Total elapsed time (seconds) = 0.522 

Total DRAM available = 16384.000 MB.
DRAM currently available =  140.250 MB.
Maximum ngspice program size =   26.078 MB.
Current ngspice program size =   26.078 MB.

