
Note: Compatibility modes selected: hs a


Circuit: SKY130 library cell nor2_4 A_to_Y__B=0

option SCALE: Scale is set to 1e-06 for instance and model parameters
Doing analysis at TEMP = 11.065354 and TNOM = 27.000000

Using KLU as Direct Linear Solver
 Reference value :  1.32514e-08
 Reference value :  5.61315e-08
 Reference value :  9.77815e-08
 Reference value :  1.38306e-07
 Reference value :  1.82346e-07
 Reference value :  2.25757e-07
 Reference value :  2.69391e-07
 Reference value :  3.13151e-07
No. of Data Rows : 68032

  Measurements for Transient Analysis

tphl                =  8.06529e-10 targ=  2.68985e-08 trig=  2.60920e-08
tplh                =  1.84754e-09 targ=  1.02124e-07 trig=  1.00276e-07
i_vdd_avg           =  -2.49656e-06 from=  1.00000e-08 to=  3.30001e-07
power_avg_uw        =  4.88652e+00


Total analysis time (seconds) = 1.98438

Total elapsed time (seconds) = 2.152 

Total DRAM available = 16384.000 MB.
DRAM currently available =  171.422 MB.
Maximum ngspice program size =   26.156 MB.
Current ngspice program size =   26.156 MB.

