
Note: Compatibility modes selected: hs a


Circuit: SKY130 library cell inv_1 A_to_Y

option SCALE: Scale is set to 1e-06 for instance and model parameters
Doing analysis at TEMP = 23.842422 and TNOM = 27.000000

Using KLU as Direct Linear Solver
 Reference value :  7.96906e-08
 Reference value :  3.03729e-07
No. of Data Rows : 68034

  Measurements for Transient Analysis

tphl                =  9.97812e-10 targ=  2.57719e-08 trig=  2.47741e-08
tplh                =  1.95085e-09 targ=  9.82730e-08 trig=  9.63222e-08
i_vdd_avg           =  -1.96709e-06 from=  1.00000e-08 to=  3.30004e-07
power_avg_uw        =  3.66464e+00


Total analysis time (seconds) = 0.393242

Total elapsed time (seconds) = 0.547 

Total DRAM available = 16384.000 MB.
DRAM currently available =   76.641 MB.
Maximum ngspice program size =   27.125 MB.
Current ngspice program size =   27.125 MB.

