
Note: Compatibility modes selected: hs a


Circuit: SKY130 library cell nand2_1 A_to_Y__B=1

option SCALE: Scale is set to 1e-06 for instance and model parameters
Doing analysis at TEMP = 28.646022 and TNOM = 27.000000

Using KLU as Direct Linear Solver
 Reference value :  4.89432e-08
 Reference value :  1.94008e-07
No. of Data Rows : 68032

  Measurements for Transient Analysis

tphl                =  1.16123e-09 targ=  2.79641e-08 trig=  2.68029e-08
tplh                =  1.84433e-09 targ=  1.04253e-07 trig=  1.02409e-07
i_vdd_avg           =  -4.73619e-07 from=  1.00000e-08 to=  3.30004e-07
power_avg_uw        =  8.69542e-01


Total analysis time (seconds) = 0.594585

Total elapsed time (seconds) = 0.745 

Total DRAM available = 16384.000 MB.
DRAM currently available =   93.734 MB.
Maximum ngspice program size =   26.938 MB.
Current ngspice program size =   26.938 MB.

