
Note: Compatibility modes selected: hs a


Circuit: SKY130 library cell nor2_1 A_to_Y__B=0

option SCALE: Scale is set to 1e-06 for instance and model parameters
Doing analysis at TEMP = 15.480000 and TNOM = 27.000000

Using KLU as Direct Linear Solver
 Reference value :  5.22780e-08
 Reference value :  1.98268e-07
 Reference value :  3.29509e-07
No. of Data Rows : 68032

  Measurements for Transient Analysis

tphl                =  1.63699e-09 targ=  2.72948e-08 trig=  2.56578e-08
tplh                =  5.15842e-09 targ=  1.04132e-07 trig=  9.89733e-08
i_vdd_avg           =  -1.51904e-06 from=  1.00000e-08 to=  3.30004e-07
power_avg_uw        =  2.47100e+00


Total analysis time (seconds) = 0.620873

Total elapsed time (seconds) = 0.769 

Total DRAM available = 16384.000 MB.
DRAM currently available =  175.125 MB.
Maximum ngspice program size =   25.562 MB.
Current ngspice program size =   25.562 MB.

