
Note: Compatibility modes selected: hs a


Circuit: SKY130 library cell inv_4 A_to_Y

option SCALE: Scale is set to 1e-06 for instance and model parameters
Doing analysis at TEMP = 63.869802 and TNOM = 27.000000

Using KLU as Direct Linear Solver
 Reference value :  2.73925e-08
 Reference value :  1.15110e-07
 Reference value :  1.96746e-07
 Reference value :  2.81630e-07
No. of Data Rows : 68034

  Measurements for Transient Analysis

tphl                =  9.21484e-10 targ=  2.79433e-08 trig=  2.70218e-08
tplh                =  1.71505e-09 targ=  1.04781e-07 trig=  1.03066e-07
i_vdd_avg           =  -2.24650e-06 from=  1.00000e-08 to=  3.30005e-07
power_avg_uw        =  4.31014e+00


Total analysis time (seconds) = 1.02072

Total elapsed time (seconds) = 1.175 

Total DRAM available = 16384.000 MB.
DRAM currently available =  140.250 MB.
Maximum ngspice program size =   26.641 MB.
Current ngspice program size =   26.641 MB.

