
Note: Compatibility modes selected: hs a


Circuit: SKY130 library cell nand2_4 A_to_Y__B=1

option SCALE: Scale is set to 1e-06 for instance and model parameters
Doing analysis at TEMP = 76.640358 and TNOM = 27.000000

Using KLU as Direct Linear Solver
 Reference value :  1.31464e-08
 Reference value :  5.16757e-08
 Reference value :  9.40207e-08
 Reference value :  1.36504e-07
 Reference value :  1.78494e-07
 Reference value :  2.23241e-07
 Reference value :  2.67331e-07
 Reference value :  3.11229e-07
No. of Data Rows : 68034

  Measurements for Transient Analysis

tphl                =  7.10313e-10 targ=  3.06219e-08 trig=  2.99116e-08
tplh                =  1.53430e-09 targ=  1.13269e-07 trig=  1.11735e-07
i_vdd_avg           =  -5.76677e-07 from=  1.00000e-08 to=  3.30004e-07
power_avg_uw        =  1.00849e+00


Total analysis time (seconds) = 2.03448

Total elapsed time (seconds) = 2.207 

Total DRAM available = 16384.000 MB.
DRAM currently available =  103.406 MB.
Maximum ngspice program size =   26.125 MB.
Current ngspice program size =   26.125 MB.

