
Note: Compatibility modes selected: hs a


Circuit: SKY130 library cell xor2_4 A_to_X__B=0

option SCALE: Scale is set to 1e-06 for instance and model parameters
Doing analysis at TEMP = 113.476550 and TNOM = 27.000000

Using KLU as Direct Linear Solver
 Reference value :  4.20140e-09
 Reference value :  2.15064e-08
 Reference value :  3.93660e-08
 Reference value :  5.68110e-08
 Reference value :  7.54460e-08
 Reference value :  9.28710e-08
 Reference value :  1.10281e-07
 Reference value :  1.29030e-07
 Reference value :  1.47090e-07
 Reference value :  1.66000e-07
 Reference value :  1.83165e-07
 Reference value :  2.01651e-07
 Reference value :  2.19286e-07
 Reference value :  2.36421e-07
 Reference value :  2.54166e-07
 Reference value :  2.71761e-07
 Reference value :  2.88725e-07
 Reference value :  3.07120e-07
 Reference value :  3.25035e-07
No. of Data Rows : 68034

  Measurements for Transient Analysis

tplh                =  1.22812e-09 targ=  3.02599e-08 trig=  2.90318e-08
tphl                =  1.36324e-09 targ=  1.10459e-07 trig=  1.09095e-07
i_vdd_avg           =  -1.48497e-06 from=  1.00000e-08 to=  3.30005e-07
power_avg_uw        =  2.43316e+00


Total analysis time (seconds) = 4.85736

Total elapsed time (seconds) = 5.040 

Total DRAM available = 16384.000 MB.
DRAM currently available =  150.844 MB.
Maximum ngspice program size =   29.844 MB.
Current ngspice program size =   29.844 MB.

