
Note: Compatibility modes selected: hs a


Circuit: SKY130 library cell xor2_4 A_to_X__B=0

option SCALE: Scale is set to 1e-06 for instance and model parameters
Doing analysis at TEMP = 16.720663 and TNOM = 27.000000

Using KLU as Direct Linear Solver
 Reference value :  3.67640e-09
 Reference value :  2.20064e-08
 Reference value :  3.92849e-08
 Reference value :  5.62749e-08
 Reference value :  7.29099e-08
 Reference value :  9.13749e-08
 Reference value :  1.07970e-07
 Reference value :  1.24632e-07
 Reference value :  1.43547e-07
 Reference value :  1.60742e-07
 Reference value :  1.79452e-07
 Reference value :  1.97220e-07
 Reference value :  2.14000e-07
 Reference value :  2.32945e-07
 Reference value :  2.50420e-07
 Reference value :  2.67305e-07
 Reference value :  2.84712e-07
 Reference value :  3.01837e-07
 Reference value :  3.19527e-07
 Reference value :  3.36362e-07
No. of Data Rows : 68030

  Measurements for Transient Analysis

tplh                =  5.89213e-10 targ=  2.91729e-08 trig=  2.85837e-08
tphl                =  1.55108e-09 targ=  1.09302e-07 trig=  1.07751e-07
i_vdd_avg           =  -4.89363e-07 from=  1.00000e-08 to=  3.30002e-07
power_avg_uw        =  8.57009e-01


Total analysis time (seconds) = 4.9443

Total elapsed time (seconds) = 5.126 

Total DRAM available = 16384.000 MB.
DRAM currently available =  109.547 MB.
Maximum ngspice program size =   26.906 MB.
Current ngspice program size =   26.906 MB.

