
Note: Compatibility modes selected: hs a


Circuit: SKY130 library cell oai21_1 A1_to_Y__A2=0,B1=1

option SCALE: Scale is set to 1e-06 for instance and model parameters
Doing analysis at TEMP = -22.957766 and TNOM = 27.000000

Using KLU as Direct Linear Solver
 Reference value :  3.35299e-08
 Reference value :  1.39942e-07
 Reference value :  2.43040e-07
No. of Data Rows : 68030

  Measurements for Transient Analysis

tphl                =  3.17948e-10 targ=  2.63967e-08 trig=  2.60787e-08
tplh                =  9.74341e-10 targ=  1.01210e-07 trig=  1.00236e-07
i_vdd_avg           =  -6.93667e-08 from=  1.00000e-08 to=  3.30002e-07
power_avg_uw        =  1.29235e-01


Total analysis time (seconds) = 0.842758

Total elapsed time (seconds) = 1.003 

Total DRAM available = 16384.000 MB.
DRAM currently available =  127.969 MB.
Maximum ngspice program size =   25.953 MB.
Current ngspice program size =   25.953 MB.

