
Note: Compatibility modes selected: hs a


Circuit: SKY130 library cell aoi21_4 A1_to_Y__A2=1,B1=0

option SCALE: Scale is set to 1e-06 for instance and model parameters
Doing analysis at TEMP = 52.048081 and TNOM = 27.000000

Using KLU as Direct Linear Solver
 Reference value :  9.63140e-09
 Reference value :  4.10140e-08
 Reference value :  7.07190e-08
 Reference value :  9.77290e-08
 Reference value :  1.27675e-07
 Reference value :  1.55915e-07
 Reference value :  1.84968e-07
 Reference value :  2.16189e-07
 Reference value :  2.48024e-07
 Reference value :  2.78475e-07
 Reference value :  3.09440e-07
 Reference value :  3.39660e-07
No. of Data Rows : 68030

  Measurements for Transient Analysis

tphl                =  2.14770e-09 targ=  3.10084e-08 trig=  2.88607e-08
tplh                =  3.59072e-09 targ=  1.12173e-07 trig=  1.08582e-07
i_vdd_avg           =  -1.90683e-06 from=  1.00000e-08 to=  3.30000e-07
power_avg_uw        =  3.14092e+00


Total analysis time (seconds) = 2.85363

Total elapsed time (seconds) = 3.018 

Total DRAM available = 16384.000 MB.
DRAM currently available =  138.578 MB.
Maximum ngspice program size =   27.453 MB.
Current ngspice program size =   27.453 MB.

