
Note: Compatibility modes selected: hs a


Circuit: SKY130 library cell inv_4 A_to_Y

option SCALE: Scale is set to 1e-06 for instance and model parameters
Doing analysis at TEMP = -29.194680 and TNOM = 27.000000

Using KLU as Direct Linear Solver
 Reference value :  3.05063e-08
 Reference value :  1.19230e-07
 Reference value :  2.05016e-07
 Reference value :  2.92060e-07
No. of Data Rows : 68032

  Measurements for Transient Analysis

tphl                =  1.93484e-10 targ=  2.48904e-08 trig=  2.46969e-08
tplh                =  4.53829e-10 targ=  9.65445e-08 trig=  9.60907e-08
i_vdd_avg           =  -4.43916e-07 from=  1.00000e-08 to=  3.30000e-07
power_avg_uw        =  8.60347e-01


Total analysis time (seconds) = 0.989956

Total elapsed time (seconds) = 1.150 

Total DRAM available = 16384.000 MB.
DRAM currently available =  120.141 MB.
Maximum ngspice program size =   24.719 MB.
Current ngspice program size =   24.719 MB.

