
Note: Compatibility modes selected: hs a


Circuit: SKY130 library cell nor2_1 A_to_Y__B=0

option SCALE: Scale is set to 1e-06 for instance and model parameters
Doing analysis at TEMP = -38.968482 and TNOM = 27.000000

Using KLU as Direct Linear Solver
 Reference value :  5.07620e-08
 Reference value :  2.01907e-07
 Reference value :  3.39936e-07
No. of Data Rows : 68032

  Measurements for Transient Analysis

tphl                =  1.35854e-09 targ=  2.86633e-08 trig=  2.73047e-08
tplh                =  3.27412e-09 targ=  1.07188e-07 trig=  1.03914e-07
i_vdd_avg           =  -6.11292e-07 from=  1.00000e-08 to=  3.30001e-07
power_avg_uw        =  1.08480e+00


Total analysis time (seconds) = 0.596521

Total elapsed time (seconds) = 0.748 

Total DRAM available = 16384.000 MB.
DRAM currently available =  105.125 MB.
Maximum ngspice program size =   26.500 MB.
Current ngspice program size =   26.500 MB.

