
Note: Compatibility modes selected: hs a


Circuit: SKY130 library cell xor2_1 A_to_X__B=0

option SCALE: Scale is set to 1e-06 for instance and model parameters
Doing analysis at TEMP = 56.217402 and TNOM = 27.000000

Using KLU as Direct Linear Solver
 Reference value :  1.94964e-08
 Reference value :  8.54253e-08
 Reference value :  1.52483e-07
 Reference value :  2.22275e-07
 Reference value :  2.94923e-07
No. of Data Rows : 68034

  Measurements for Transient Analysis

tplh                =  3.02808e-09 targ=  2.79370e-08 trig=  2.49089e-08
tphl                =  1.08793e-09 targ=  9.78146e-08 trig=  9.67266e-08
i_vdd_avg           =  -1.53312e-06 from=  1.00000e-08 to=  3.30003e-07
power_avg_uw        =  2.68649e+00


Total analysis time (seconds) = 1.2235

Total elapsed time (seconds) = 1.382 

Total DRAM available = 16384.000 MB.
DRAM currently available =  166.922 MB.
Maximum ngspice program size =   26.172 MB.
Current ngspice program size =   26.172 MB.

