
Note: Compatibility modes selected: hs a


Circuit: SKY130 library cell nand3_1 A_to_Y__B=1,C=1

option SCALE: Scale is set to 1e-06 for instance and model parameters
Doing analysis at TEMP = 40.255171 and TNOM = 27.000000

Using KLU as Direct Linear Solver
 Reference value :  2.79225e-08
 Reference value :  1.24596e-07
 Reference value :  2.26944e-07
 Reference value :  3.35051e-07
No. of Data Rows : 68030

  Measurements for Transient Analysis

tphl                =  2.32157e-09 targ=  2.90350e-08 trig=  2.67135e-08
tplh                =  2.64372e-09 targ=  1.04784e-07 trig=  1.02140e-07
i_vdd_avg           =  -1.23132e-06 from=  1.00000e-08 to=  3.30001e-07
power_avg_uw        =  2.22864e+00


Total analysis time (seconds) = 0.853958

Total elapsed time (seconds) = 1.023 

Total DRAM available = 16384.000 MB.
DRAM currently available =  105.125 MB.
Maximum ngspice program size =   27.750 MB.
Current ngspice program size =   27.750 MB.

