
Note: Compatibility modes selected: hs a


Circuit: SKY130 library cell nand2_4 A_to_Y__B=1

option SCALE: Scale is set to 1e-06 for instance and model parameters
Doing analysis at TEMP = 20.049926 and TNOM = 27.000000

Using KLU as Direct Linear Solver
 Reference value :  1.23414e-08
 Reference value :  5.64845e-08
 Reference value :  9.96995e-08
 Reference value :  1.41012e-07
 Reference value :  1.81967e-07
 Reference value :  2.24305e-07
 Reference value :  2.68367e-07
 Reference value :  3.08127e-07
No. of Data Rows : 68030

  Measurements for Transient Analysis

tphl                =  2.41644e-10 targ=  2.57726e-08 trig=  2.55310e-08
tplh                =  5.80908e-10 targ=  9.91739e-08 trig=  9.85930e-08
i_vdd_avg           =  -3.21415e-07 from=  1.00000e-08 to=  3.30002e-07
power_avg_uw        =  6.11853e-01


Total analysis time (seconds) = 2.04519

Total elapsed time (seconds) = 2.212 

Total DRAM available = 16384.000 MB.
DRAM currently available =  117.062 MB.
Maximum ngspice program size =   25.766 MB.
Current ngspice program size =   25.766 MB.

