
Note: Compatibility modes selected: hs a


Circuit: SKY130 library cell mux2_1 A0_to_X__A1=0,S=0

option SCALE: Scale is set to 1e-06 for instance and model parameters
Doing analysis at TEMP = -25.017180 and TNOM = 27.000000

Using KLU as Direct Linear Solver
 Reference value :  2.30014e-08
 Reference value :  8.19375e-08
 Reference value :  1.37717e-07
 Reference value :  1.93452e-07
 Reference value :  2.46672e-07
 Reference value :  3.02692e-07
No. of Data Rows : 68032

  Measurements for Transient Analysis

tplh                =  4.59559e-10 targ=  2.61245e-08 trig=  2.56650e-08
tphl                =  1.03337e-09 targ=  1.00028e-07 trig=  9.89950e-08
i_vdd_avg           =  -2.04571e-07 from=  1.00000e-08 to=  3.30002e-07
power_avg_uw        =  3.92797e-01


Total analysis time (seconds) = 1.52628

Total elapsed time (seconds) = 1.675 

Total DRAM available = 16384.000 MB.
DRAM currently available =  143.688 MB.
Maximum ngspice program size =   25.453 MB.
Current ngspice program size =   25.453 MB.

