
Note: Compatibility modes selected: hs a


Circuit: SKY130 library cell oai21_1 A1_to_Y__A2=0,B1=1

option SCALE: Scale is set to 1e-06 for instance and model parameters
Doing analysis at TEMP = 100.186630 and TNOM = 27.000000

Using KLU as Direct Linear Solver
 Reference value :  3.55676e-08
 Reference value :  1.39193e-07
 Reference value :  2.46968e-07
No. of Data Rows : 68032

  Measurements for Transient Analysis

tphl                =  1.75830e-09 targ=  2.77159e-08 trig=  2.59575e-08
tplh                =  3.09294e-09 targ=  1.02966e-07 trig=  9.98726e-08
i_vdd_avg           =  -1.87439e-06 from=  1.00000e-08 to=  3.30003e-07
power_avg_uw        =  3.66739e+00


Total analysis time (seconds) = 0.823043

Total elapsed time (seconds) = 0.977 

Total DRAM available = 16384.000 MB.
DRAM currently available =  178.375 MB.
Maximum ngspice program size =   25.578 MB.
Current ngspice program size =   25.578 MB.

