
Note: Compatibility modes selected: hs a


Circuit: SKY130 library cell aoi21_4 A1_to_Y__A2=1,B1=0

option SCALE: Scale is set to 1e-06 for instance and model parameters
Doing analysis at TEMP = -26.889033 and TNOM = 27.000000

Using KLU as Direct Linear Solver
 Reference value :  9.51640e-09
 Reference value :  4.16857e-08
 Reference value :  7.03007e-08
 Reference value :  1.01551e-07
 Reference value :  1.30819e-07
 Reference value :  1.60019e-07
 Reference value :  1.88743e-07
 Reference value :  2.18446e-07
 Reference value :  2.46351e-07
 Reference value :  2.73509e-07
 Reference value :  3.02979e-07
 Reference value :  3.30329e-07
No. of Data Rows : 68034

  Measurements for Transient Analysis

tphl                =  4.02177e-10 targ=  2.80038e-08 trig=  2.76016e-08
tplh                =  1.46015e-09 targ=  1.06265e-07 trig=  1.04805e-07
i_vdd_avg           =  -1.55222e-07 from=  1.00000e-08 to=  3.30004e-07
power_avg_uw        =  2.70936e-01


Total analysis time (seconds) = 2.95758

Total elapsed time (seconds) = 3.116 

Total DRAM available = 16384.000 MB.
DRAM currently available =  175.125 MB.
Maximum ngspice program size =   26.938 MB.
Current ngspice program size =   26.938 MB.

