
Note: Compatibility modes selected: hs a


Circuit: SKY130 library cell xor2_1 A_to_X__B=0

option SCALE: Scale is set to 1e-06 for instance and model parameters
Doing analysis at TEMP = 79.791461 and TNOM = 27.000000

Using KLU as Direct Linear Solver
 Reference value :  2.33214e-08
 Reference value :  9.01571e-08
 Reference value :  1.57782e-07
 Reference value :  2.26897e-07
 Reference value :  2.91357e-07
No. of Data Rows : 68032

  Measurements for Transient Analysis

tplh                =  4.40488e-09 targ=  3.15922e-08 trig=  2.71873e-08
tphl                =  1.86385e-09 targ=  1.05426e-07 trig=  1.03562e-07
i_vdd_avg           =  -2.17399e-06 from=  1.00000e-08 to=  3.30002e-07
power_avg_uw        =  3.75152e+00


Total analysis time (seconds) = 1.29289

Total elapsed time (seconds) = 1.445 

Total DRAM available = 16384.000 MB.
DRAM currently available =  150.844 MB.
Maximum ngspice program size =   26.109 MB.
Current ngspice program size =   26.109 MB.

