
Note: Compatibility modes selected: hs a


Circuit: SKY130 library cell nand2_1 A_to_Y__B=1

option SCALE: Scale is set to 1e-06 for instance and model parameters
Doing analysis at TEMP = 61.991533 and TNOM = 27.000000

Using KLU as Direct Linear Solver
 Reference value :  4.56587e-08
 Reference value :  1.90454e-07
 Reference value :  3.22395e-07
No. of Data Rows : 68032

  Measurements for Transient Analysis

tphl                =  1.28388e-09 targ=  2.65645e-08 trig=  2.52806e-08
tplh                =  1.56641e-09 targ=  9.94082e-08 trig=  9.78418e-08
i_vdd_avg           =  -1.18831e-06 from=  1.00000e-08 to=  3.30005e-07
power_avg_uw        =  2.23350e+00


Total analysis time (seconds) = 0.635116

Total elapsed time (seconds) = 0.793 

Total DRAM available = 16384.000 MB.
DRAM currently available =   79.250 MB.
Maximum ngspice program size =   27.812 MB.
Current ngspice program size =   27.812 MB.

