
Note: Compatibility modes selected: hs a


Circuit: SKY130 library cell oai21_4 A1_to_Y__A2=0,B1=1

option SCALE: Scale is set to 1e-06 for instance and model parameters
Doing analysis at TEMP = 45.808492 and TNOM = 27.000000

Using KLU as Direct Linear Solver
 Reference value :  8.16140e-09
 Reference value :  3.82695e-08
 Reference value :  6.94295e-08
 Reference value :  9.60545e-08
 Reference value :  1.25627e-07
 Reference value :  1.53967e-07
 Reference value :  1.80832e-07
 Reference value :  2.10595e-07
 Reference value :  2.39015e-07
 Reference value :  2.68994e-07
 Reference value :  2.98701e-07
 Reference value :  3.28216e-07
No. of Data Rows : 68030

  Measurements for Transient Analysis

tphl                =  1.91124e-09 targ=  3.15347e-08 trig=  2.96235e-08
tplh                =  3.60775e-09 targ=  1.14478e-07 trig=  1.10871e-07
i_vdd_avg           =  -2.24439e-06 from=  1.00000e-08 to=  3.30001e-07
power_avg_uw        =  3.95358e+00


Total analysis time (seconds) = 2.97387

Total elapsed time (seconds) = 3.140 

Total DRAM available = 16384.000 MB.
DRAM currently available =  118.016 MB.
Maximum ngspice program size =   29.203 MB.
Current ngspice program size =   29.203 MB.

