
Note: Compatibility modes selected: hs a


Circuit: SKY130 library cell nor2_4 A_to_Y__B=0

option SCALE: Scale is set to 1e-06 for instance and model parameters
Doing analysis at TEMP = 59.337184 and TNOM = 27.000000

Using KLU as Direct Linear Solver
 Reference value :  1.40714e-08
 Reference value :  5.58257e-08
 Reference value :  9.54657e-08
 Reference value :  1.42414e-07
 Reference value :  1.87808e-07
 Reference value :  2.30801e-07
 Reference value :  2.78839e-07
 Reference value :  3.27349e-07
No. of Data Rows : 68034

  Measurements for Transient Analysis

tphl                =  8.35539e-10 targ=  2.89221e-08 trig=  2.80866e-08
tplh                =  1.93070e-09 targ=  1.08190e-07 trig=  1.06260e-07
i_vdd_avg           =  -1.08611e-06 from=  1.00000e-08 to=  3.30004e-07
power_avg_uw        =  1.96563e+00


Total analysis time (seconds) = 1.9061

Total elapsed time (seconds) = 2.064 

Total DRAM available = 16384.000 MB.
DRAM currently available =  183.016 MB.
Maximum ngspice program size =   25.750 MB.
Current ngspice program size =   25.750 MB.

