
Note: Compatibility modes selected: hs a


Circuit: SKY130 library cell xor2_1 A_to_X__B=0

option SCALE: Scale is set to 1e-06 for instance and model parameters
Doing analysis at TEMP = -21.006968 and TNOM = 27.000000

Using KLU as Direct Linear Solver
 Reference value :  2.54675e-08
 Reference value :  8.60238e-08
 Reference value :  1.54175e-07
 Reference value :  2.21594e-07
 Reference value :  2.86840e-07
No. of Data Rows : 68030

  Measurements for Transient Analysis

tplh                =  3.69322e-09 targ=  3.34864e-08 trig=  2.97931e-08
tphl                =  3.11563e-09 targ=  1.14495e-07 trig=  1.11379e-07
i_vdd_avg           =  -1.06018e-06 from=  1.00000e-08 to=  3.30000e-07
power_avg_uw        =  1.75862e+00


Total analysis time (seconds) = 1.29644

Total elapsed time (seconds) = 1.452 

Total DRAM available = 16384.000 MB.
DRAM currently available =  171.422 MB.
Maximum ngspice program size =   27.578 MB.
Current ngspice program size =   27.578 MB.

