
Note: Compatibility modes selected: hs a


Circuit: SKY130 library cell xor2_4 A_to_X__B=0

option SCALE: Scale is set to 1e-06 for instance and model parameters
Doing analysis at TEMP = 64.351666 and TNOM = 27.000000

Using KLU as Direct Linear Solver
 Reference value :  3.87140e-09
 Reference value :  2.17814e-08
 Reference value :  4.02860e-08
 Reference value :  5.89360e-08
 Reference value :  7.45160e-08
 Reference value :  9.19060e-08
 Reference value :  1.09520e-07
 Reference value :  1.28145e-07
 Reference value :  1.44810e-07
 Reference value :  1.62140e-07
 Reference value :  1.79810e-07
 Reference value :  1.96221e-07
 Reference value :  2.13436e-07
 Reference value :  2.31466e-07
 Reference value :  2.48561e-07
 Reference value :  2.64975e-07
 Reference value :  2.83105e-07
 Reference value :  3.00485e-07
 Reference value :  3.16520e-07
 Reference value :  3.34580e-07
No. of Data Rows : 68034

  Measurements for Transient Analysis

tplh                =  1.07110e-09 targ=  2.54654e-08 trig=  2.43943e-08
tphl                =  5.38764e-10 targ=  9.57216e-08 trig=  9.51828e-08
i_vdd_avg           =  -1.89521e-06 from=  1.00000e-08 to=  3.30005e-07
power_avg_uw        =  3.21524e+00


Total analysis time (seconds) = 4.96836

Total elapsed time (seconds) = 5.156 

Total DRAM available = 16384.000 MB.
DRAM currently available =  108.109 MB.
Maximum ngspice program size =   29.219 MB.
Current ngspice program size =   29.219 MB.

