
Note: Compatibility modes selected: hs a


Circuit: SKY130 library cell xor2_4 A_to_X__B=0

option SCALE: Scale is set to 1e-06 for instance and model parameters
Doing analysis at TEMP = 71.461222 and TNOM = 27.000000

Using KLU as Direct Linear Solver
 Reference value :  3.78640e-09
 Reference value :  2.09064e-08
 Reference value :  3.79200e-08
 Reference value :  5.53150e-08
 Reference value :  7.23000e-08
 Reference value :  8.97650e-08
 Reference value :  1.07833e-07
 Reference value :  1.25473e-07
 Reference value :  1.43453e-07
 Reference value :  1.61058e-07
 Reference value :  1.78888e-07
 Reference value :  1.96350e-07
 Reference value :  2.13165e-07
 Reference value :  2.31165e-07
 Reference value :  2.47010e-07
 Reference value :  2.64020e-07
 Reference value :  2.81683e-07
 Reference value :  3.00633e-07
 Reference value :  3.19943e-07
 Reference value :  3.39063e-07
No. of Data Rows : 68034

  Measurements for Transient Analysis

tplh                =  8.51727e-10 targ=  2.78580e-08 trig=  2.70063e-08
tphl                =  9.20251e-10 targ=  1.03939e-07 trig=  1.03019e-07
i_vdd_avg           =  -2.58650e-06 from=  1.00000e-08 to=  3.30003e-07
power_avg_uw        =  5.04216e+00


Total analysis time (seconds) = 4.89507

Total elapsed time (seconds) = 5.075 

Total DRAM available = 16384.000 MB.
DRAM currently available =  143.625 MB.
Maximum ngspice program size =   27.156 MB.
Current ngspice program size =   27.156 MB.

