
Note: Compatibility modes selected: hs a


Circuit: SKY130 library cell nor2_4 A_to_Y__B=0

option SCALE: Scale is set to 1e-06 for instance and model parameters
Doing analysis at TEMP = -26.325139 and TNOM = 27.000000

Using KLU as Direct Linear Solver
 Reference value :  1.44864e-08
 Reference value :  5.79052e-08
 Reference value :  1.03238e-07
 Reference value :  1.48563e-07
 Reference value :  1.91270e-07
 Reference value :  2.34825e-07
 Reference value :  2.75438e-07
 Reference value :  3.17663e-07
No. of Data Rows : 68034

  Measurements for Transient Analysis

tphl                =  6.63705e-10 targ=  2.58925e-08 trig=  2.52288e-08
tplh                =  1.58597e-09 targ=  9.92725e-08 trig=  9.76865e-08
i_vdd_avg           =  -1.55335e-06 from=  1.00000e-08 to=  3.30003e-07
power_avg_uw        =  2.72242e+00


Total analysis time (seconds) = 2.01328

Total elapsed time (seconds) = 2.178 

Total DRAM available = 16384.000 MB.
DRAM currently available =  109.547 MB.
Maximum ngspice program size =   28.484 MB.
Current ngspice program size =   28.484 MB.

