
Note: Compatibility modes selected: hs a


Circuit: SKY130 library cell inv_1 A_to_Y

option SCALE: Scale is set to 1e-06 for instance and model parameters
Doing analysis at TEMP = -3.864628 and TNOM = 27.000000

Using KLU as Direct Linear Solver
 Reference value :  1.16358e-07
No. of Data Rows : 68034

  Measurements for Transient Analysis

tphl                =  3.57092e-09 targ=  3.30849e-08 trig=  2.95140e-08
tplh                =  6.15290e-09 targ=  1.16695e-07 trig=  1.10542e-07
i_vdd_avg           =  -1.95636e-06 from=  1.00000e-08 to=  3.30003e-07
power_avg_uw        =  3.23666e+00


Total analysis time (seconds) = 0.334857

Total elapsed time (seconds) = 0.461 

Total DRAM available = 16384.000 MB.
DRAM currently available =  253.703 MB.
Maximum ngspice program size =   25.328 MB.
Current ngspice program size =   25.328 MB.

