
Note: Compatibility modes selected: hs a


Circuit: SKY130 library cell mux2_4 A0_to_X__A1=0,S=0

option SCALE: Scale is set to 1e-06 for instance and model parameters
Doing analysis at TEMP = 29.184433 and TNOM = 27.000000

Using KLU as Direct Linear Solver
 Reference value :  1.25064e-08
 Reference value :  4.89597e-08
 Reference value :  8.67347e-08
 Reference value :  1.25247e-07
 Reference value :  1.63552e-07
 Reference value :  2.01190e-07
 Reference value :  2.38225e-07
 Reference value :  2.74592e-07
 Reference value :  3.11997e-07
No. of Data Rows : 68030

  Measurements for Transient Analysis

tplh                =  9.93915e-10 targ=  2.66150e-08 trig=  2.56211e-08
tphl                =  1.33969e-09 targ=  1.00203e-07 trig=  9.88632e-08
i_vdd_avg           =  -1.81814e-06 from=  1.00000e-08 to=  3.30002e-07
power_avg_uw        =  3.24082e+00


Total analysis time (seconds) = 2.31061

Total elapsed time (seconds) = 2.473 

Total DRAM available = 16384.000 MB.
DRAM currently available =  105.125 MB.
Maximum ngspice program size =   25.891 MB.
Current ngspice program size =   25.891 MB.

