
Note: Compatibility modes selected: hs a


Circuit: SKY130 library cell inv_4 A_to_Y

option SCALE: Scale is set to 1e-06 for instance and model parameters
Doing analysis at TEMP = 104.786800 and TNOM = 27.000000

Using KLU as Direct Linear Solver
 Reference value :  2.67525e-08
 Reference value :  1.04957e-07
 Reference value :  1.82466e-07
 Reference value :  2.61692e-07
No. of Data Rows : 68032

  Measurements for Transient Analysis

tphl                =  1.12724e-09 targ=  2.98643e-08 trig=  2.87370e-08
tplh                =  1.87679e-09 targ=  1.10088e-07 trig=  1.08211e-07
i_vdd_avg           =  -1.03879e-06 from=  1.00000e-08 to=  3.30001e-07
power_avg_uw        =  1.74487e+00


Total analysis time (seconds) = 1.0767

Total elapsed time (seconds) = 1.237 

Total DRAM available = 16384.000 MB.
DRAM currently available =  124.312 MB.
Maximum ngspice program size =   25.922 MB.
Current ngspice program size =   25.922 MB.

