
Note: Compatibility modes selected: hs a


Circuit: SKY130 library cell nand3_4 A_to_Y__B=1,C=1

option SCALE: Scale is set to 1e-06 for instance and model parameters
Doing analysis at TEMP = 85.898819 and TNOM = 27.000000

Using KLU as Direct Linear Solver
 Reference value :  6.58140e-09
 Reference value :  3.45052e-08
 Reference value :  6.25602e-08
 Reference value :  9.34552e-08
 Reference value :  1.22623e-07
 Reference value :  1.52303e-07
 Reference value :  1.79833e-07
 Reference value :  2.11805e-07
 Reference value :  2.41475e-07
 Reference value :  2.70958e-07
 Reference value :  2.99338e-07
 Reference value :  3.28458e-07
No. of Data Rows : 68034

  Measurements for Transient Analysis

tphl                =  2.50769e-10 targ=  2.72746e-08 trig=  2.70238e-08
tplh                =  5.62446e-10 targ=  1.03634e-07 trig=  1.03072e-07
i_vdd_avg           =  -4.07468e-07 from=  1.00000e-08 to=  3.30003e-07
power_avg_uw        =  7.73898e-01


Total analysis time (seconds) = 2.96598

Total elapsed time (seconds) = 3.141 

Total DRAM available = 16384.000 MB.
DRAM currently available =  140.250 MB.
Maximum ngspice program size =   27.625 MB.
Current ngspice program size =   27.625 MB.

