
Note: Compatibility modes selected: hs a


Circuit: SKY130 library cell nand3_1 A_to_Y__B=1,C=1

option SCALE: Scale is set to 1e-06 for instance and model parameters
Doing analysis at TEMP = 71.981957 and TNOM = 27.000000

Using KLU as Direct Linear Solver
 Reference value :  3.56336e-08
 Reference value :  1.41885e-07
 Reference value :  2.45044e-07
No. of Data Rows : 68032

  Measurements for Transient Analysis

tphl                =  3.58453e-09 targ=  3.25976e-08 trig=  2.90131e-08
tplh                =  3.94537e-09 targ=  1.12985e-07 trig=  1.09039e-07
i_vdd_avg           =  -2.05686e-06 from=  1.00000e-08 to=  3.30005e-07
power_avg_uw        =  3.98044e+00


Total analysis time (seconds) = 0.837259

Total elapsed time (seconds) = 0.996 

Total DRAM available = 16384.000 MB.
DRAM currently available =  175.125 MB.
Maximum ngspice program size =   26.516 MB.
Current ngspice program size =   26.516 MB.

