
Note: Compatibility modes selected: hs a


Circuit: SKY130 library cell oai21_1 A1_to_Y__A2=0,B1=1

option SCALE: Scale is set to 1e-06 for instance and model parameters
Doing analysis at TEMP = 96.203481 and TNOM = 27.000000

Using KLU as Direct Linear Solver
 Reference value :  3.53600e-08
 Reference value :  1.37962e-07
 Reference value :  2.41685e-07
No. of Data Rows : 68030

  Measurements for Transient Analysis

tphl                =  4.16852e-09 targ=  3.37123e-08 trig=  2.95437e-08
tplh                =  6.87162e-09 targ=  1.17503e-07 trig=  1.10631e-07
i_vdd_avg           =  -1.87950e-06 from=  1.00000e-08 to=  3.30002e-07
power_avg_uw        =  3.07742e+00


Total analysis time (seconds) = 0.843309

Total elapsed time (seconds) = 0.998 

Total DRAM available = 16384.000 MB.
DRAM currently available =  145.734 MB.
Maximum ngspice program size =   27.344 MB.
Current ngspice program size =   27.344 MB.

