
Note: Compatibility modes selected: hs a


Circuit: SKY130 library cell mux2_1 A0_to_X__A1=0,S=0

option SCALE: Scale is set to 1e-06 for instance and model parameters
Doing analysis at TEMP = 98.042690 and TNOM = 27.000000

Using KLU as Direct Linear Solver
 Reference value :  2.29264e-08
 Reference value :  7.54210e-08
 Reference value :  1.32019e-07
 Reference value :  1.87198e-07
 Reference value :  2.41156e-07
 Reference value :  2.96849e-07
No. of Data Rows : 68034

  Measurements for Transient Analysis

tplh                =  1.98718e-09 targ=  2.84014e-08 trig=  2.64142e-08
tphl                =  1.99332e-09 targ=  1.03236e-07 trig=  1.01243e-07
i_vdd_avg           =  -2.28475e-06 from=  1.00000e-08 to=  3.30004e-07
power_avg_uw        =  4.19553e+00


Total analysis time (seconds) = 1.55782

Total elapsed time (seconds) = 1.711 

Total DRAM available = 16384.000 MB.
DRAM currently available =  163.141 MB.
Maximum ngspice program size =   27.562 MB.
Current ngspice program size =   27.562 MB.

