
Note: Compatibility modes selected: hs a


Circuit: SKY130 library cell aoi21_4 A1_to_Y__A2=1,B1=0

option SCALE: Scale is set to 1e-06 for instance and model parameters
Doing analysis at TEMP = 16.473516 and TNOM = 27.000000

Using KLU as Direct Linear Solver
 Reference value :  7.56640e-09
 Reference value :  3.54513e-08
 Reference value :  6.53963e-08
 Reference value :  9.24713e-08
 Reference value :  1.23420e-07
 Reference value :  1.53970e-07
 Reference value :  1.80995e-07
 Reference value :  2.11026e-07
 Reference value :  2.39836e-07
 Reference value :  2.66740e-07
 Reference value :  2.96165e-07
 Reference value :  3.23775e-07
No. of Data Rows : 68032

  Measurements for Transient Analysis

tphl                =  7.36254e-10 targ=  2.69707e-08 trig=  2.62344e-08
tplh                =  1.44907e-09 targ=  1.02152e-07 trig=  1.00703e-07
i_vdd_avg           =  -9.09047e-07 from=  1.00000e-08 to=  3.30000e-07
power_avg_uw        =  1.65074e+00


Total analysis time (seconds) = 2.98276

Total elapsed time (seconds) = 3.160 

Total DRAM available = 16384.000 MB.
DRAM currently available =  105.125 MB.
Maximum ngspice program size =   28.078 MB.
Current ngspice program size =   28.078 MB.

