
Note: Compatibility modes selected: hs a


Circuit: SKY130 library cell nand2_4 A_to_Y__B=1

option SCALE: Scale is set to 1e-06 for instance and model parameters
Doing analysis at TEMP = 3.744396 and TNOM = 27.000000

Using KLU as Direct Linear Solver
 Reference value :  1.49464e-08
 Reference value :  6.00601e-08
 Reference value :  1.08108e-07
 Reference value :  1.51793e-07
 Reference value :  1.95480e-07
 Reference value :  2.35545e-07
 Reference value :  2.82118e-07
 Reference value :  3.24448e-07
No. of Data Rows : 68034

  Measurements for Transient Analysis

tphl                =  4.06025e-10 targ=  2.50723e-08 trig=  2.46663e-08
tplh                =  6.05763e-10 targ=  9.66047e-08 trig=  9.59989e-08
i_vdd_avg           =  -1.19250e-06 from=  1.00000e-08 to=  3.30003e-07
power_avg_uw        =  2.30556e+00


Total analysis time (seconds) = 1.96235

Total elapsed time (seconds) = 2.120 

Total DRAM available = 16384.000 MB.
DRAM currently available =  138.578 MB.
Maximum ngspice program size =   26.516 MB.
Current ngspice program size =   26.516 MB.

