
Note: Compatibility modes selected: hs a


Circuit: SKY130 library cell nor2_4 A_to_Y__B=0

option SCALE: Scale is set to 1e-06 for instance and model parameters
Doing analysis at TEMP = 38.336546 and TNOM = 27.000000

Using KLU as Direct Linear Solver
 Reference value :  1.63764e-08
 Reference value :  5.77656e-08
 Reference value :  1.00176e-07
 Reference value :  1.44254e-07
 Reference value :  1.88413e-07
 Reference value :  2.28206e-07
 Reference value :  2.73911e-07
 Reference value :  3.19324e-07
No. of Data Rows : 68034

  Measurements for Transient Analysis

tphl                =  6.71574e-11 targ=  2.91637e-08 trig=  2.90965e-08
tplh                =  1.09591e-09 targ=  1.10385e-07 trig=  1.09290e-07
i_vdd_avg           =  -3.40243e-07 from=  1.00000e-08 to=  3.30004e-07
power_avg_uw        =  6.40483e-01


Total analysis time (seconds) = 1.9636

Total elapsed time (seconds) = 2.127 

Total DRAM available = 16384.000 MB.
DRAM currently available =  145.734 MB.
Maximum ngspice program size =   25.609 MB.
Current ngspice program size =   25.609 MB.

