
Note: No compatibility mode selected!


Circuit: NOR2 seed characterization sample 4323027

Doing analysis at TEMP = 34.097500 and TNOM = 27.000000

Using SPARSE 1.3 as Direct Linear Solver

Initial Transient Solution
--------------------------

Node                                   Voltage
----                                   -------
vdd                                    1.91189
in                                           0
out                                    1.91189
pmid                                   1.91189
vin#branch                                   0
vdd#branch                        -4.64621e-12

 Reference value :  3.82249e-08
 Reference value :  9.06189e-08
No. of Data Rows : 60044

  Measurements for Transient Analysis

tphl                =  1.96058e-10 targ=  2.29502e-09 trig=  2.09896e-09
tplh                =  8.20704e-10 targ=  2.31176e-08 trig=  2.22969e-08
i_vdd_avg           =  -4.13880e-06 from=  5.00000e-09 to=  1.10001e-07
power_avg_uw        =  7.91293e+00


Total analysis time (seconds) = 0.537729

Total elapsed time (seconds) = 0.616 

Total DRAM available = 16384.000 MB.
DRAM currently available =  186.641 MB.
Maximum ngspice program size =   12.562 MB.
Current ngspice program size =   12.250 MB.

