
Note: No compatibility mode selected!


Circuit: NOR2 seed characterization sample 4323017

Doing analysis at TEMP = -19.845200 and TNOM = 27.000000

Using SPARSE 1.3 as Direct Linear Solver

Initial Transient Solution
--------------------------

Node                                   Voltage
----                                   -------
vdd                                      1.833
in                                           0
out                                      1.833
pmid                                     1.833
vin#branch                                   0
vdd#branch                        -3.69018e-12

 Reference value :  4.52539e-08
 Reference value :  1.04541e-07
No. of Data Rows : 60041

  Measurements for Transient Analysis

tphl                =  2.42838e-10 targ=  2.36631e-09 trig=  2.12347e-09
tplh                =  1.35056e-09 targ=  2.37210e-08 trig=  2.23704e-08
i_vdd_avg           =  -3.72006e-06 from=  5.00000e-09 to=  1.10001e-07
power_avg_uw        =  6.81887e+00


Total analysis time (seconds) = 0.485579

Total elapsed time (seconds) = 0.558 

Total DRAM available = 16384.000 MB.
DRAM currently available =  200.781 MB.
Maximum ngspice program size =   12.562 MB.
Current ngspice program size =   11.844 MB.

