
Note: No compatibility mode selected!


Circuit: INV seed characterization sample 4323028

Doing analysis at TEMP = 29.692900 and TNOM = 27.000000

Using SPARSE 1.3 as Direct Linear Solver

Initial Transient Solution
--------------------------

Node                                   Voltage
----                                   -------
vdd                                    1.91523
in                                           0
out                                    1.91523
vin#branch                                   0
vdd#branch                        -2.17909e-12

 Reference value :  6.12636e-08
No. of Data Rows : 60041

  Measurements for Transient Analysis

tphl                =  8.01861e-11 targ=  2.17848e-09 trig=  2.09830e-09
tplh                =  1.01500e-10 targ=  2.23964e-08 trig=  2.22949e-08
i_vdd_avg           =  -4.32671e-07 from=  5.00000e-09 to=  1.10000e-07
power_avg_uw        =  8.28664e-01


Total analysis time (seconds) = 0.338449

Total elapsed time (seconds) = 0.418 

Total DRAM available = 16384.000 MB.
DRAM currently available =  161.375 MB.
Maximum ngspice program size =   12.562 MB.
Current ngspice program size =   11.844 MB.

