
Note: No compatibility mode selected!


Circuit: NOR2 seed characterization sample 4323002

Doing analysis at TEMP = 84.246200 and TNOM = 27.000000

Using SPARSE 1.3 as Direct Linear Solver

Initial Transient Solution
--------------------------

Node                                   Voltage
----                                   -------
vdd                                    1.75872
in                                           0
out                                    1.75872
pmid                                   1.75872
vin#branch                                   0
vdd#branch                        -1.56268e-11

 Reference value :  4.05730e-08
 Reference value :  9.57980e-08
No. of Data Rows : 60047

  Measurements for Transient Analysis

tphl                =  5.16377e-10 targ=  2.59088e-09 trig=  2.07450e-09
tplh                =  2.56161e-09 targ=  2.47851e-08 trig=  2.22235e-08
i_vdd_avg           =  -5.00502e-06 from=  5.00000e-09 to=  1.10001e-07
power_avg_uw        =  8.80243e+00


Total analysis time (seconds) = 0.5315

Total elapsed time (seconds) = 0.609 

Total DRAM available = 16384.000 MB.
DRAM currently available =  176.094 MB.
Maximum ngspice program size =   12.562 MB.
Current ngspice program size =   11.906 MB.

