
Note: No compatibility mode selected!


Circuit: NAND2 seed characterization sample 4323016

Doing analysis at TEMP = 97.544600 and TNOM = 27.000000

Using SPARSE 1.3 as Direct Linear Solver

Initial Transient Solution
--------------------------

Node                                   Voltage
----                                   -------
vdd                                    1.67489
in                                           0
out                                    1.67489
nmid                                  0.051131
vin#branch                                   0
vdd#branch                        -8.21053e-12

 Reference value :  4.64727e-08
 Reference value :  1.06632e-07
No. of Data Rows : 60044

  Measurements for Transient Analysis

tphl                =  4.89224e-10 targ=  2.73107e-09 trig=  2.24185e-09
tplh                =  2.47385e-10 targ=  2.29729e-08 trig=  2.27256e-08
i_vdd_avg           =  -2.63599e-06 from=  5.00000e-09 to=  1.10000e-07
power_avg_uw        =  4.41499e+00


Total analysis time (seconds) = 0.482376

Total elapsed time (seconds) = 0.554 

Total DRAM available = 16384.000 MB.
DRAM currently available =  185.531 MB.
Maximum ngspice program size =   12.609 MB.
Current ngspice program size =   11.672 MB.

