
Note: No compatibility mode selected!


Circuit: NAND2 seed characterization sample 4323043

Doing analysis at TEMP = -9.361230 and TNOM = 27.000000

Using SPARSE 1.3 as Direct Linear Solver

Initial Transient Solution
--------------------------

Node                                   Voltage
----                                   -------
vdd                                    1.82144
in                                           0
out                                    1.82144
nmid                                0.00931646
vin#branch                                   0
vdd#branch                        -1.85837e-12

 Reference value :  4.24493e-08
 Reference value :  1.02311e-07
No. of Data Rows : 60044

  Measurements for Transient Analysis

tphl                =  2.92887e-10 targ=  2.49603e-09 trig=  2.20314e-09
tplh                =  2.05192e-10 targ=  2.28146e-08 trig=  2.26094e-08
i_vdd_avg           =  -5.17758e-06 from=  5.00000e-09 to=  1.10002e-07
power_avg_uw        =  9.43064e+00


Total analysis time (seconds) = 0.487907

Total elapsed time (seconds) = 0.565 

Total DRAM available = 16384.000 MB.
DRAM currently available =  168.625 MB.
Maximum ngspice program size =   12.562 MB.
Current ngspice program size =   11.625 MB.

