
Note: No compatibility mode selected!


Circuit: NOR2 seed characterization sample 4323044

Doing analysis at TEMP = -12.324800 and TNOM = 27.000000

Using SPARSE 1.3 as Direct Linear Solver

Initial Transient Solution
--------------------------

Node                                   Voltage
----                                   -------
vdd                                    1.70361
in                                           0
out                                    1.70361
pmid                                   1.70361
vin#branch                                   0
vdd#branch                         -3.4375e-12

 Reference value :  4.18510e-08
 Reference value :  1.00817e-07
No. of Data Rows : 60044

  Measurements for Transient Analysis

tphl                =  1.34807e-10 targ=  2.26580e-09 trig=  2.13100e-09
tplh                =  3.82278e-10 targ=  2.27753e-08 trig=  2.23930e-08
i_vdd_avg           =  -1.56080e-06 from=  5.00000e-09 to=  1.10001e-07
power_avg_uw        =  2.65899e+00


Total analysis time (seconds) = 0.495954

Total elapsed time (seconds) = 0.573 

Total DRAM available = 16384.000 MB.
DRAM currently available =  171.797 MB.
Maximum ngspice program size =   12.562 MB.
Current ngspice program size =   11.984 MB.

