
Note: No compatibility mode selected!


Circuit: NOR2 seed characterization sample 4323022

Doing analysis at TEMP = 64.627100 and TNOM = 27.000000

Using SPARSE 1.3 as Direct Linear Solver

Initial Transient Solution
--------------------------

Node                                   Voltage
----                                   -------
vdd                                    1.73246
in                                           0
out                                    1.73246
pmid                                   1.73246
vin#branch                                   0
vdd#branch                        -3.06631e-11

 Reference value :  4.28755e-08
 Reference value :  1.02038e-07
No. of Data Rows : 60041

  Measurements for Transient Analysis

tphl                =  1.74336e-10 targ=  2.40359e-09 trig=  2.22926e-09
tplh                =  6.07852e-10 targ=  2.32956e-08 trig=  2.26878e-08
i_vdd_avg           =  -5.63123e-06 from=  5.00000e-09 to=  1.10000e-07
power_avg_uw        =  9.75588e+00


Total analysis time (seconds) = 0.493266

Total elapsed time (seconds) = 0.568 

Total DRAM available = 16384.000 MB.
DRAM currently available =  189.953 MB.
Maximum ngspice program size =   12.562 MB.
Current ngspice program size =   11.594 MB.

