
Note: No compatibility mode selected!


Circuit: NOR2 seed characterization sample 4323007

Doing analysis at TEMP = 91.474700 and TNOM = 27.000000

Using SPARSE 1.3 as Direct Linear Solver

Initial Transient Solution
--------------------------

Node                                   Voltage
----                                   -------
vdd                                    1.95838
in                                           0
out                                    1.95838
pmid                                   1.95838
vin#branch                                   0
vdd#branch                        -7.84063e-11

 Reference value :  4.48575e-08
 Reference value :  1.04317e-07
No. of Data Rows : 60047

  Measurements for Transient Analysis

tphl                =  1.21274e-10 targ=  2.13086e-09 trig=  2.00959e-09
tplh                =  5.02224e-10 targ=  2.25310e-08 trig=  2.20288e-08
i_vdd_avg           =  -5.69174e-06 from=  5.00000e-09 to=  1.10001e-07
power_avg_uw        =  1.11466e+01


Total analysis time (seconds) = 0.483011

Total elapsed time (seconds) = 0.553 

Total DRAM available = 16384.000 MB.
DRAM currently available =  267.141 MB.
Maximum ngspice program size =   12.562 MB.
Current ngspice program size =   11.625 MB.

