
Note: No compatibility mode selected!


Circuit: NAND2 seed characterization sample 4323025

Doing analysis at TEMP = 26.926800 and TNOM = 27.000000

Using SPARSE 1.3 as Direct Linear Solver

Initial Transient Solution
--------------------------

Node                                   Voltage
----                                   -------
vdd                                    1.83027
in                                           0
out                                    1.83027
nmid                                  0.026155
vin#branch                                   0
vdd#branch                        -1.92954e-12

 Reference value :  3.90622e-08
 Reference value :  9.26156e-08
No. of Data Rows : 60041

  Measurements for Transient Analysis

tphl                =  3.58227e-10 targ=  2.53754e-09 trig=  2.17931e-09
tplh                =  1.75082e-10 targ=  2.27130e-08 trig=  2.25379e-08
i_vdd_avg           =  -2.00058e-06 from=  5.00000e-09 to=  1.10000e-07
power_avg_uw        =  3.66160e+00


Total analysis time (seconds) = 0.525481

Total elapsed time (seconds) = 0.605 

Total DRAM available = 16384.000 MB.
DRAM currently available =  171.781 MB.
Maximum ngspice program size =   12.562 MB.
Current ngspice program size =   11.969 MB.

