
Note: No compatibility mode selected!


Circuit: NAND2 seed characterization sample 4323012

Doing analysis at TEMP = 64.406500 and TNOM = 27.000000

Using SPARSE 1.3 as Direct Linear Solver

Initial Transient Solution
--------------------------

Node                                   Voltage
----                                   -------
vdd                                    1.72839
in                                           0
out                                    1.72839
nmid                                  0.046013
vin#branch                                   0
vdd#branch                        -2.27595e-12

 Reference value :  4.37528e-08
 Reference value :  1.03631e-07
No. of Data Rows : 60044

  Measurements for Transient Analysis

tphl                =  1.05571e-09 targ=  3.16961e-09 trig=  2.11390e-09
tplh                =  3.15625e-10 targ=  2.26573e-08 trig=  2.23417e-08
i_vdd_avg           =  -4.64934e-06 from=  5.00000e-09 to=  1.10001e-07
power_avg_uw        =  8.03587e+00


Total analysis time (seconds) = 0.484641

Total elapsed time (seconds) = 0.560 

Total DRAM available = 16384.000 MB.
DRAM currently available =  194.859 MB.
Maximum ngspice program size =   12.562 MB.
Current ngspice program size =   11.906 MB.

