
Note: No compatibility mode selected!


Circuit: NAND2 seed characterization sample 4323037

Doing analysis at TEMP = 32.215800 and TNOM = 27.000000

Using SPARSE 1.3 as Direct Linear Solver

Initial Transient Solution
--------------------------

Node                                   Voltage
----                                   -------
vdd                                    1.69347
in                                           0
out                                    1.69347
nmid                                 0.0335604
vin#branch                                   0
vdd#branch                        -1.85846e-12

 Reference value :  4.27305e-08
 Reference value :  1.00785e-07
No. of Data Rows : 60044

  Measurements for Transient Analysis

tphl                =  5.14115e-10 targ=  2.74589e-09 trig=  2.23177e-09
tplh                =  2.40403e-10 targ=  2.29357e-08 trig=  2.26953e-08
i_vdd_avg           =  -3.54415e-06 from=  5.00000e-09 to=  1.10000e-07
power_avg_uw        =  6.00191e+00


Total analysis time (seconds) = 0.503422

Total elapsed time (seconds) = 0.581 

Total DRAM available = 16384.000 MB.
DRAM currently available =  168.016 MB.
Maximum ngspice program size =   12.562 MB.
Current ngspice program size =   11.625 MB.

