
Note: No compatibility mode selected!


Circuit: NAND2 seed characterization sample 4323003

Doing analysis at TEMP = 56.749000 and TNOM = 27.000000

Using SPARSE 1.3 as Direct Linear Solver

Initial Transient Solution
--------------------------

Node                                   Voltage
----                                   -------
vdd                                    1.72226
in                                           0
out                                    1.72226
nmid                                 0.0414724
vin#branch                                   0
vdd#branch                        -2.01319e-12

 Reference value :  4.19378e-08
 Reference value :  9.83384e-08
No. of Data Rows : 60047

  Measurements for Transient Analysis

tphl                =  7.33052e-10 targ=  2.81474e-09 trig=  2.08169e-09
tplh                =  2.69821e-10 targ=  2.25149e-08 trig=  2.22451e-08
i_vdd_avg           =  -1.95710e-06 from=  5.00000e-09 to=  1.10002e-07
power_avg_uw        =  3.37064e+00


Total analysis time (seconds) = 0.517634

Total elapsed time (seconds) = 0.593 

Total DRAM available = 16384.000 MB.
DRAM currently available =  176.094 MB.
Maximum ngspice program size =   12.562 MB.
Current ngspice program size =   11.656 MB.

