
Note: No compatibility mode selected!


Circuit: XOR2 seed characterization sample 4323030

Doing analysis at TEMP = 79.023300 and TNOM = 27.000000

Using SPARSE 1.3 as Direct Linear Solver

Initial Transient Solution
--------------------------

Node                                   Voltage
----                                   -------
vdd                                    1.64926
in                                           0
b                                      1.64926
abar                                   1.64926
bbar                               4.61282e-09
out                                    1.64926
vb#branch                                    0
vin#branch                         1.51315e-11
vdd#branch                        -3.36337e-11

 Reference value :  2.12251e-08
 Reference value :  5.11211e-08
 Reference value :  8.26671e-08
 Reference value :  1.19577e-07
No. of Data Rows : 60044

  Measurements for Transient Analysis

tphl                =  3.69859e-10 targ=  2.54193e-09 trig=  2.17207e-09
tplh                =  5.69818e-10 targ=  2.30860e-08 trig=  2.25162e-08
i_vdd_avg           =  -2.42862e-06 from=  5.00000e-09 to=  1.10001e-07
power_avg_uw        =  4.00542e+00


Total analysis time (seconds) = 0.910934

Total elapsed time (seconds) = 0.995 

Total DRAM available = 16384.000 MB.
DRAM currently available =  185.031 MB.
Maximum ngspice program size =   13.000 MB.
Current ngspice program size =   13.000 MB.

