
Note: No compatibility mode selected!


Circuit: XOR2 seed characterization sample 4323033

Doing analysis at TEMP = 86.934400 and TNOM = 27.000000

Using SPARSE 1.3 as Direct Linear Solver

Initial Transient Solution
--------------------------

Node                                   Voltage
----                                   -------
vdd                                    1.81122
in                                           0
b                                      1.81122
abar                                   1.81122
bbar                               5.82882e-09
out                                    1.81122
vb#branch                                    0
vin#branch                         3.98911e-11
vdd#branch                        -7.83793e-11

 Reference value :  2.27146e-08
 Reference value :  5.54546e-08
 Reference value :  9.18226e-08
No. of Data Rows : 60044

  Measurements for Transient Analysis

tphl                =  2.98911e-10 targ=  2.50569e-09 trig=  2.20678e-09
tplh                =  3.08275e-10 targ=  2.29286e-08 trig=  2.26203e-08
i_vdd_avg           =  -3.17239e-06 from=  5.00000e-09 to=  1.10000e-07
power_avg_uw        =  5.74589e+00


Total analysis time (seconds) = 0.844994

Total elapsed time (seconds) = 0.924 

Total DRAM available = 16384.000 MB.
DRAM currently available =  189.719 MB.
Maximum ngspice program size =   12.562 MB.
Current ngspice program size =   11.625 MB.

