
Note: No compatibility mode selected!


Circuit: NAND2 seed characterization sample 4323006

Doing analysis at TEMP = -2.613310 and TNOM = 27.000000

Using SPARSE 1.3 as Direct Linear Solver

Initial Transient Solution
--------------------------

Node                                   Voltage
----                                   -------
vdd                                    1.81488
in                                           0
out                                    1.81488
nmid                                0.00800063
vin#branch                                   0
vdd#branch                        -1.84781e-12

 Reference value :  4.58775e-08
 Reference value :  1.07134e-07
No. of Data Rows : 60044

  Measurements for Transient Analysis

tphl                =  4.68838e-10 targ=  2.52208e-09 trig=  2.05324e-09
tplh                =  1.71439e-10 targ=  2.23312e-08 trig=  2.21597e-08
i_vdd_avg           =  -5.54071e-06 from=  5.00000e-09 to=  1.10002e-07
power_avg_uw        =  1.00557e+01


Total analysis time (seconds) = 0.467324

Total elapsed time (seconds) = 0.539 

Total DRAM available = 16384.000 MB.
DRAM currently available =  267.141 MB.
Maximum ngspice program size =   13.188 MB.
Current ngspice program size =   11.875 MB.

