
Note: No compatibility mode selected!


Circuit: XOR2 seed characterization sample 4323032

Doing analysis at TEMP = 16.021000 and TNOM = 27.000000

Using SPARSE 1.3 as Direct Linear Solver

Initial Transient Solution
--------------------------

Node                                   Voltage
----                                   -------
vdd                                    1.83955
in                                           0
b                                      1.83955
abar                                   1.83955
bbar                               1.55465e-09
out                                    1.83955
vb#branch                                    0
vin#branch                         2.17823e-12
vdd#branch                        -1.16784e-11

 Reference value :  2.12038e-08
 Reference value :  5.08378e-08
 Reference value :  8.22290e-08
 Reference value :  1.18919e-07
No. of Data Rows : 60041

  Measurements for Transient Analysis

tphl                =  3.39570e-10 targ=  2.48300e-09 trig=  2.14342e-09
tplh                =  3.61736e-10 targ=  2.27920e-08 trig=  2.24303e-08
i_vdd_avg           =  -5.70042e-06 from=  5.00000e-09 to=  1.10001e-07
power_avg_uw        =  1.04862e+01


Total analysis time (seconds) = 0.916609

Total elapsed time (seconds) = 0.999 

Total DRAM available = 16384.000 MB.
DRAM currently available =  194.281 MB.
Maximum ngspice program size =   12.578 MB.
Current ngspice program size =   11.984 MB.

