
Note: No compatibility mode selected!


Circuit: INV seed characterization sample 4312004

Doing analysis at TEMP = -17.929000 and TNOM = 27.000000

Using SPARSE 1.3 as Direct Linear Solver

Initial Transient Solution
--------------------------

Node                                   Voltage
----                                   -------
vdd                                    1.93807
in                                           0
out                                    1.93807
vin#branch                                   0
vdd#branch                        -1.94827e-12

 Reference value :  7.52474e-08
No. of Data Rows : 60044

  Measurements for Transient Analysis

tphl                =  9.21209e-11 targ=  2.27023e-09 trig=  2.17811e-09
tplh                =  1.13471e-10 targ=  2.26478e-08 trig=  2.25343e-08
i_vdd_avg           =  -3.92785e-07 from=  5.00000e-09 to=  1.10001e-07
power_avg_uw        =  7.61245e-01


Total analysis time (seconds) = 0.284592

Total elapsed time (seconds) = 0.354 

Total DRAM available = 16384.000 MB.
DRAM currently available =  123.438 MB.
Maximum ngspice program size =   12.609 MB.
Current ngspice program size =   12.031 MB.

