
Note: No compatibility mode selected!


Circuit: NAND2 seed characterization sample 4312040

Doing analysis at TEMP = 47.801300 and TNOM = 27.000000

Using SPARSE 1.3 as Direct Linear Solver

Initial Transient Solution
--------------------------

Node                                   Voltage
----                                   -------
vdd                                    1.79078
in                                           0
out                                    1.79078
nmid                                 0.0138179
vin#branch                                   0
vdd#branch                         -1.8415e-12

 Reference value :  4.13190e-08
 Reference value :  9.86710e-08
No. of Data Rows : 60044

  Measurements for Transient Analysis

tphl                =  7.92999e-10 targ=  2.97199e-09 trig=  2.17899e-09
tplh                =  3.09597e-10 targ=  2.28466e-08 trig=  2.25370e-08
i_vdd_avg           =  -2.93798e-06 from=  5.00000e-09 to=  1.10001e-07
power_avg_uw        =  5.26128e+00


Total analysis time (seconds) = 0.503528

Total elapsed time (seconds) = 0.580 

Total DRAM available = 16384.000 MB.
DRAM currently available =  147.484 MB.
Maximum ngspice program size =   12.766 MB.
Current ngspice program size =   12.766 MB.

