
Note: No compatibility mode selected!


Circuit: INV seed characterization sample 4312014

Doing analysis at TEMP = 13.494400 and TNOM = 27.000000

Using SPARSE 1.3 as Direct Linear Solver

Initial Transient Solution
--------------------------

Node                                   Voltage
----                                   -------
vdd                                    1.75959
in                                           0
out                                    1.75959
vin#branch                                   0
vdd#branch                        -1.78685e-12

 Reference value :  7.19073e-08
No. of Data Rows : 60044

  Measurements for Transient Analysis

tphl                =  2.15534e-10 targ=  2.38261e-09 trig=  2.16707e-09
tplh                =  3.59834e-10 targ=  2.28611e-08 trig=  2.25012e-08
i_vdd_avg           =  -3.91888e-06 from=  5.00000e-09 to=  1.10001e-07
power_avg_uw        =  6.89562e+00


Total analysis time (seconds) = 0.300557

Total elapsed time (seconds) = 0.371 

Total DRAM available = 16384.000 MB.
DRAM currently available =  124.297 MB.
Maximum ngspice program size =   12.562 MB.
Current ngspice program size =   11.625 MB.

