
Note: No compatibility mode selected!


Circuit: XOR2 seed characterization sample 4312012

Doing analysis at TEMP = 31.657300 and TNOM = 27.000000

Using SPARSE 1.3 as Direct Linear Solver

Initial Transient Solution
--------------------------

Node                                   Voltage
----                                   -------
vdd                                    1.84052
in                                           0
b                                      1.84052
abar                                   1.84052
bbar                               9.84372e-09
out                                    1.84052
vb#branch                                    0
vin#branch                         1.86543e-12
vdd#branch                        -1.11319e-11

 Reference value :  2.61730e-08
 Reference value :  6.08100e-08
 Reference value :  9.74600e-08
No. of Data Rows : 60041

  Measurements for Transient Analysis

tphl                =  7.80135e-10 targ=  2.99963e-09 trig=  2.21949e-09
tplh                =  1.14740e-09 targ=  2.38059e-08 trig=  2.26585e-08
i_vdd_avg           =  -2.05339e-06 from=  5.00000e-09 to=  1.10001e-07
power_avg_uw        =  3.77931e+00


Total analysis time (seconds) = 0.809563

Total elapsed time (seconds) = 0.883 

Total DRAM available = 16384.000 MB.
DRAM currently available =  160.969 MB.
Maximum ngspice program size =   12.578 MB.
Current ngspice program size =   11.875 MB.

