
Note: No compatibility mode selected!


Circuit: NOR2 seed characterization sample 4312016

Doing analysis at TEMP = 1.556410 and TNOM = 27.000000

Using SPARSE 1.3 as Direct Linear Solver

Initial Transient Solution
--------------------------

Node                                   Voltage
----                                   -------
vdd                                    1.93813
in                                           0
out                                    1.93813
pmid                                   1.93813
vin#branch                                   0
vdd#branch                        -3.90611e-12

 Reference value :  4.58613e-08
 Reference value :  1.05848e-07
No. of Data Rows : 60044

  Measurements for Transient Analysis

tphl                =  1.02702e-10 targ=  2.16686e-09 trig=  2.06416e-09
tplh                =  3.38546e-10 targ=  2.25310e-08 trig=  2.21925e-08
i_vdd_avg           =  -4.53961e-06 from=  5.00000e-09 to=  1.10002e-07
power_avg_uw        =  8.79834e+00


Total analysis time (seconds) = 0.479288

Total elapsed time (seconds) = 0.551 

Total DRAM available = 16384.000 MB.
DRAM currently available =  116.672 MB.
Maximum ngspice program size =   12.562 MB.
Current ngspice program size =   11.844 MB.

