
Note: No compatibility mode selected!


Circuit: INV seed characterization sample 4312018

Doing analysis at TEMP = 34.374700 and TNOM = 27.000000

Using SPARSE 1.3 as Direct Linear Solver

Initial Transient Solution
--------------------------

Node                                   Voltage
----                                   -------
vdd                                    1.93078
in                                           0
out                                    1.93078
vin#branch                                   0
vdd#branch                        -2.02614e-12

 Reference value :  6.51263e-08
No. of Data Rows : 60041

  Measurements for Transient Analysis

tphl                =  2.73642e-10 targ=  2.49197e-09 trig=  2.21833e-09
tplh                =  2.82461e-10 targ=  2.29374e-08 trig=  2.26550e-08
i_vdd_avg           =  -4.35085e-06 from=  5.00000e-09 to=  1.10000e-07
power_avg_uw        =  8.40054e+00


Total analysis time (seconds) = 0.310528

Total elapsed time (seconds) = 0.388 

Total DRAM available = 16384.000 MB.
DRAM currently available =  113.516 MB.
Maximum ngspice program size =   12.594 MB.
Current ngspice program size =   11.797 MB.

