
Note: No compatibility mode selected!


Circuit: NAND2 seed characterization sample 4312027

Doing analysis at TEMP = 36.181400 and TNOM = 27.000000

Using SPARSE 1.3 as Direct Linear Solver

Initial Transient Solution
--------------------------

Node                                   Voltage
----                                   -------
vdd                                    1.82655
in                                           0
out                                    1.82655
nmid                                 0.0194184
vin#branch                                   0
vdd#branch                        -1.89843e-12

 Reference value :  4.18371e-08
 Reference value :  1.00085e-07
No. of Data Rows : 60044

  Measurements for Transient Analysis

tphl                =  1.90851e-10 targ=  2.24788e-09 trig=  2.05703e-09
tplh                =  8.02670e-11 targ=  2.22514e-08 trig=  2.21711e-08
i_vdd_avg           =  -2.48293e-06 from=  5.00000e-09 to=  1.10001e-07
power_avg_uw        =  4.53519e+00


Total analysis time (seconds) = 0.496824

Total elapsed time (seconds) = 0.573 

Total DRAM available = 16384.000 MB.
DRAM currently available =  116.328 MB.
Maximum ngspice program size =   12.562 MB.
Current ngspice program size =   11.594 MB.

