
Note: No compatibility mode selected!


Circuit: INV seed characterization sample 4312025

Doing analysis at TEMP = 82.426700 and TNOM = 27.000000

Using SPARSE 1.3 as Direct Linear Solver

Initial Transient Solution
--------------------------

Node                                   Voltage
----                                   -------
vdd                                    1.88519
in                                           0
out                                    1.88519
vin#branch                                   0
vdd#branch                        -2.72003e-12

 Reference value :  6.39095e-08
No. of Data Rows : 60047

  Measurements for Transient Analysis

tphl                =  3.86862e-10 targ=  2.49950e-09 trig=  2.11264e-09
tplh                =  5.42501e-10 targ=  2.28804e-08 trig=  2.23379e-08
i_vdd_avg           =  -2.92536e-06 from=  5.00000e-09 to=  1.10002e-07
power_avg_uw        =  5.51486e+00


Total analysis time (seconds) = 0.320468

Total elapsed time (seconds) = 0.398 

Total DRAM available = 16384.000 MB.
DRAM currently available =  134.516 MB.
Maximum ngspice program size =   12.625 MB.
Current ngspice program size =   11.844 MB.

