
Note: No compatibility mode selected!


Circuit: XOR2 seed characterization sample 4312041

Doing analysis at TEMP = 17.144800 and TNOM = 27.000000

Using SPARSE 1.3 as Direct Linear Solver

Initial Transient Solution
--------------------------

Node                                   Voltage
----                                   -------
vdd                                    1.87113
in                                           0
b                                      1.87113
abar                                   1.87113
bbar                               9.72003e-10
out                                    1.87113
vb#branch                                    0
vin#branch                         1.92317e-12
vdd#branch                        -1.13617e-11

 Reference value :  2.22007e-08
 Reference value :  5.33307e-08
 Reference value :  8.47767e-08
No. of Data Rows : 60044

  Measurements for Transient Analysis

tphl                =  3.08484e-10 targ=  2.45934e-09 trig=  2.15085e-09
tplh                =  3.43426e-10 targ=  2.27960e-08 trig=  2.24526e-08
i_vdd_avg           =  -6.77780e-06 from=  5.00000e-09 to=  1.10000e-07
power_avg_uw        =  1.26822e+01


Total analysis time (seconds) = 0.902379

Total elapsed time (seconds) = 0.983 

Total DRAM available = 16384.000 MB.
DRAM currently available =  114.234 MB.
Maximum ngspice program size =   12.594 MB.
Current ngspice program size =   11.969 MB.

