
Note: No compatibility mode selected!


Circuit: INV seed characterization sample 4110001

Doing analysis at TEMP = 14.867000 and TNOM = 27.000000

Using SPARSE 1.3 as Direct Linear Solver

Initial Transient Solution
--------------------------

Node                                   Voltage
----                                   -------
vdd                                    1.76929
in                                           0
out                                    1.76929
vin#branch                                   0
vdd#branch                        -1.78295e-12

 Reference value :  7.43111e-08
No. of Data Rows : 60047

  Measurements for Transient Analysis

tphl                =  4.57059e-10 targ=  2.61259e-09 trig=  2.15553e-09
tplh                =  5.47187e-10 targ=  2.30138e-08 trig=  2.24666e-08
i_vdd_avg           =  -2.82396e-06 from=  5.00000e-09 to=  1.10001e-07
power_avg_uw        =  4.99640e+00


Total analysis time (seconds) = 0.292824

Total elapsed time (seconds) = 0.360 

Total DRAM available = 16384.000 MB.
DRAM currently available =  237.922 MB.
Maximum ngspice program size =   13.031 MB.
Current ngspice program size =   13.031 MB.

