
Note: No compatibility mode selected!


Circuit: INV seed characterization sample 4110014

Doing analysis at TEMP = -1.927040 and TNOM = 27.000000

Using SPARSE 1.3 as Direct Linear Solver

Initial Transient Solution
--------------------------

Node                                   Voltage
----                                   -------
vdd                                    1.89406
in                                           0
out                                    1.89406
vin#branch                                   0
vdd#branch                        -1.90588e-12

 Reference value :  7.42310e-08
No. of Data Rows : 60044

  Measurements for Transient Analysis

tphl                =  3.04495e-10 targ=  2.50849e-09 trig=  2.20399e-09
tplh                =  3.17229e-10 targ=  2.29292e-08 trig=  2.26120e-08
i_vdd_avg           =  -3.91208e-06 from=  5.00000e-09 to=  1.10001e-07
power_avg_uw        =  7.40972e+00


Total analysis time (seconds) = 0.290832

Total elapsed time (seconds) = 0.359 

Total DRAM available = 16384.000 MB.
DRAM currently available =  233.219 MB.
Maximum ngspice program size =   12.562 MB.
Current ngspice program size =   11.719 MB.

