
Note: No compatibility mode selected!


Circuit: NAND2 seed characterization sample 4110009

Doing analysis at TEMP = -2.630270 and TNOM = 27.000000

Using SPARSE 1.3 as Direct Linear Solver

Initial Transient Solution
--------------------------

Node                                   Voltage
----                                   -------
vdd                                    1.72146
in                                           0
out                                    1.72146
nmid                               0.000661815
vin#branch                                   0
vdd#branch                        -1.73335e-12

 Reference value :  4.60644e-08
 Reference value :  1.06818e-07
No. of Data Rows : 60047

  Measurements for Transient Analysis

tphl                =  3.77735e-10 targ=  2.43644e-09 trig=  2.05871e-09
tplh                =  1.91458e-10 targ=  2.23676e-08 trig=  2.21761e-08
i_vdd_avg           =  -3.66177e-06 from=  5.00000e-09 to=  1.10002e-07
power_avg_uw        =  6.30360e+00


Total analysis time (seconds) = 0.475042

Total elapsed time (seconds) = 0.547 

Total DRAM available = 16384.000 MB.
DRAM currently available =  230.750 MB.
Maximum ngspice program size =   12.609 MB.
Current ngspice program size =   11.734 MB.

