
Note: No compatibility mode selected!


Circuit: NOR2 seed characterization sample 4110033

Doing analysis at TEMP = 9.797330 and TNOM = 27.000000

Using SPARSE 1.3 as Direct Linear Solver

Initial Transient Solution
--------------------------

Node                                   Voltage
----                                   -------
vdd                                    1.78903
in                                           0
out                                    1.78903
pmid                                   1.78903
vin#branch                                   0
vdd#branch                        -3.62249e-12

 Reference value :  4.30467e-08
 Reference value :  1.00747e-07
No. of Data Rows : 60044

  Measurements for Transient Analysis

tphl                =  1.10239e-10 targ=  2.24411e-09 trig=  2.13387e-09
tplh                =  3.49950e-10 targ=  2.27516e-08 trig=  2.24016e-08
i_vdd_avg           =  -2.69001e-06 from=  5.00000e-09 to=  1.10000e-07
power_avg_uw        =  4.81252e+00


Total analysis time (seconds) = 0.508936

Total elapsed time (seconds) = 0.586 

Total DRAM available = 16384.000 MB.
DRAM currently available =  223.500 MB.
Maximum ngspice program size =   12.562 MB.
Current ngspice program size =   11.656 MB.

