
Note: No compatibility mode selected!


Circuit: INV seed characterization sample 4110027

Doing analysis at TEMP = 15.422000 and TNOM = 27.000000

Using SPARSE 1.3 as Direct Linear Solver

Initial Transient Solution
--------------------------

Node                                   Voltage
----                                   -------
vdd                                    1.67372
in                                           0
out                                    1.67372
vin#branch                                   0
vdd#branch                        -1.68674e-12

 Reference value :  7.05326e-08
No. of Data Rows : 60041

  Measurements for Transient Analysis

tphl                =  2.98348e-10 targ=  2.32575e-09 trig=  2.02740e-09
tplh                =  5.31658e-10 targ=  2.26139e-08 trig=  2.20822e-08
i_vdd_avg           =  -1.32295e-06 from=  5.00000e-09 to=  1.10001e-07
power_avg_uw        =  2.21424e+00


Total analysis time (seconds) = 0.301006

Total elapsed time (seconds) = 0.374 

Total DRAM available = 16384.000 MB.
DRAM currently available =  201.516 MB.
Maximum ngspice program size =   12.609 MB.
Current ngspice program size =   12.016 MB.

