
Note: No compatibility mode selected!


Circuit: XOR2 seed characterization sample 4110047

Doing analysis at TEMP = 95.851600 and TNOM = 27.000000

Using SPARSE 1.3 as Direct Linear Solver

Initial Transient Solution
--------------------------

Node                                   Voltage
----                                   -------
vdd                                    1.73927
in                                           0
b                                      1.73927
abar                                   1.73927
bbar                               3.45417e-09
out                                    1.73927
vb#branch                                    0
vin#branch                         6.92087e-12
vdd#branch                        -1.96402e-11

 Reference value :  2.31819e-08
 Reference value :  5.55045e-08
 Reference value :  9.01245e-08
No. of Data Rows : 60047

  Measurements for Transient Analysis

tphl                =  4.54764e-10 targ=  2.68150e-09 trig=  2.22674e-09
tplh                =  6.13327e-10 targ=  2.32935e-08 trig=  2.26802e-08
i_vdd_avg           =  -3.17353e-06 from=  5.00000e-09 to=  1.10002e-07
power_avg_uw        =  5.51962e+00


Total analysis time (seconds) = 0.861094

Total elapsed time (seconds) = 0.939 

Total DRAM available = 16384.000 MB.
DRAM currently available =  242.406 MB.
Maximum ngspice program size =   12.578 MB.
Current ngspice program size =   11.828 MB.

