
Note: No compatibility mode selected!


Circuit: NOR2 seed characterization sample 4110044

Doing analysis at TEMP = -12.930700 and TNOM = 27.000000

Using SPARSE 1.3 as Direct Linear Solver

Initial Transient Solution
--------------------------

Node                                   Voltage
----                                   -------
vdd                                     1.7228
in                                           0
out                                     1.7228
pmid                                    1.7228
vin#branch                                   0
vdd#branch                        -3.46771e-12

 Reference value :  3.93729e-08
 Reference value :  9.09300e-08
No. of Data Rows : 60041

  Measurements for Transient Analysis

tphl                =  1.04201e-10 targ=  2.25868e-09 trig=  2.15448e-09
tplh                =  3.12662e-10 targ=  2.27761e-08 trig=  2.24634e-08
i_vdd_avg           =  -1.89229e-06 from=  5.00000e-09 to=  1.10001e-07
power_avg_uw        =  3.26005e+00


Total analysis time (seconds) = 0.538096

Total elapsed time (seconds) = 0.616 

Total DRAM available = 16384.000 MB.
DRAM currently available =  228.766 MB.
Maximum ngspice program size =   12.594 MB.
Current ngspice program size =   12.312 MB.

