
Note: No compatibility mode selected!


Circuit: NOR2 seed characterization sample 4110024

Doing analysis at TEMP = -7.496660 and TNOM = 27.000000

Using SPARSE 1.3 as Direct Linear Solver

Initial Transient Solution
--------------------------

Node                                   Voltage
----                                   -------
vdd                                     1.9413
in                                           0
out                                     1.9413
pmid                                    1.9413
vin#branch                                   0
vdd#branch                        -3.90426e-12

 Reference value :  3.95874e-08
 Reference value :  9.43752e-08
No. of Data Rows : 60044

  Measurements for Transient Analysis

tphl                =  9.04423e-11 targ=  2.33553e-09 trig=  2.24509e-09
tplh                =  2.69330e-10 targ=  2.30046e-08 trig=  2.27353e-08
i_vdd_avg           =  -7.67448e-07 from=  5.00000e-09 to=  1.10001e-07
power_avg_uw        =  1.48985e+00


Total analysis time (seconds) = 0.522785

Total elapsed time (seconds) = 0.600 

Total DRAM available = 16384.000 MB.
DRAM currently available =  213.328 MB.
Maximum ngspice program size =   12.562 MB.
Current ngspice program size =   11.688 MB.

