
Note: No compatibility mode selected!


Circuit: NAND2 seed characterization sample 4110036

Doing analysis at TEMP = -8.201820 and TNOM = 27.000000

Using SPARSE 1.3 as Direct Linear Solver

Initial Transient Solution
--------------------------

Node                                   Voltage
----                                   -------
vdd                                    1.73921
in                                           0
out                                    1.73921
nmid                               0.000518885
vin#branch                                   0
vdd#branch                         -1.7507e-12

 Reference value :  4.36507e-08
 Reference value :  1.01739e-07
No. of Data Rows : 60057

  Measurements for Transient Analysis

tphl                =  3.99046e-10 targ=  2.40624e-09 trig=  2.00719e-09
tplh                =  1.69378e-10 targ=  2.21910e-08 trig=  2.20216e-08
i_vdd_avg           =  -5.92147e-06 from=  5.00000e-09 to=  1.10001e-07
power_avg_uw        =  1.02987e+01


Total analysis time (seconds) = 0.503852

Total elapsed time (seconds) = 0.580 

Total DRAM available = 16384.000 MB.
DRAM currently available =  212.547 MB.
Maximum ngspice program size =   12.609 MB.
Current ngspice program size =   11.672 MB.

