
Note: No compatibility mode selected!


Circuit: XOR2 seed characterization sample 4110025

Doing analysis at TEMP = 23.398300 and TNOM = 27.000000

Using SPARSE 1.3 as Direct Linear Solver

Initial Transient Solution
--------------------------

Node                                   Voltage
----                                   -------
vdd                                    1.65248
in                                           0
b                                      1.65248
abar                                   1.65248
bbar                               2.21253e-09
out                                    1.65248
vb#branch                                    0
vin#branch                         1.68923e-12
vdd#branch                         -1.0022e-11

 Reference value :  2.51667e-08
 Reference value :  6.00508e-08
 Reference value :  1.00095e-07
No. of Data Rows : 60044

  Measurements for Transient Analysis

tphl                =  3.21602e-10 targ=  2.44552e-09 trig=  2.12392e-09
tplh                =  4.61378e-10 targ=  2.28331e-08 trig=  2.23717e-08
i_vdd_avg           =  -2.39997e-06 from=  5.00000e-09 to=  1.10001e-07
power_avg_uw        =  3.96591e+00


Total analysis time (seconds) = 0.778532

Total elapsed time (seconds) = 0.855 

Total DRAM available = 16384.000 MB.
DRAM currently available =  219.594 MB.
Maximum ngspice program size =   12.656 MB.
Current ngspice program size =   12.000 MB.

