
Note: No compatibility mode selected!


Circuit: NAND2 seed characterization sample 4110040

Doing analysis at TEMP = 4.010230 and TNOM = 27.000000

Using SPARSE 1.3 as Direct Linear Solver

Initial Transient Solution
--------------------------

Node                                   Voltage
----                                   -------
vdd                                    1.92388
in                                           0
out                                    1.92388
nmid                                0.00273686
vin#branch                                   0
vdd#branch                        -1.94163e-12

 Reference value :  4.52790e-08
 Reference value :  1.05957e-07
No. of Data Rows : 60044

  Measurements for Transient Analysis

tphl                =  2.80914e-10 targ=  2.36292e-09 trig=  2.08201e-09
tplh                =  1.46117e-10 targ=  2.23921e-08 trig=  2.22460e-08
i_vdd_avg           =  -5.71945e-06 from=  5.00000e-09 to=  1.10001e-07
power_avg_uw        =  1.10035e+01


Total analysis time (seconds) = 0.477933

Total elapsed time (seconds) = 0.551 

Total DRAM available = 16384.000 MB.
DRAM currently available =  208.156 MB.
Maximum ngspice program size =   12.562 MB.
Current ngspice program size =   11.656 MB.

