
Note: No compatibility mode selected!


Circuit: NAND2 seed characterization sample 4110016

Doing analysis at TEMP = 96.289300 and TNOM = 27.000000

Using SPARSE 1.3 as Direct Linear Solver

Initial Transient Solution
--------------------------

Node                                   Voltage
----                                   -------
vdd                                    1.93972
in                                           0
out                                    1.93972
nmid                                 0.0506154
vin#branch                                   0
vdd#branch                         -3.6668e-12

 Reference value :  4.85900e-08
 Reference value :  1.10737e-07
No. of Data Rows : 60047

  Measurements for Transient Analysis

tphl                =  2.24880e-10 targ=  2.44138e-09 trig=  2.21650e-09
tplh                =  1.22512e-10 targ=  2.27720e-08 trig=  2.26495e-08
i_vdd_avg           =  -1.76331e-06 from=  5.00000e-09 to=  1.10001e-07
power_avg_uw        =  3.42033e+00


Total analysis time (seconds) = 0.464113

Total elapsed time (seconds) = 0.531 

Total DRAM available = 16384.000 MB.
DRAM currently available =  233.219 MB.
Maximum ngspice program size =   12.594 MB.
Current ngspice program size =   11.688 MB.

