
Note: No compatibility mode selected!


Circuit: INV seed characterization sample 4110022

Doing analysis at TEMP = 83.499900 and TNOM = 27.000000

Using SPARSE 1.3 as Direct Linear Solver

Initial Transient Solution
--------------------------

Node                                   Voltage
----                                   -------
vdd                                     1.9665
in                                           0
out                                     1.9665
vin#branch                                   0
vdd#branch                        -6.48014e-12

 Reference value :  6.23433e-08
No. of Data Rows : 60044

  Measurements for Transient Analysis

tphl                =  2.10437e-10 targ=  2.25752e-09 trig=  2.04708e-09
tplh                =  2.09271e-10 targ=  2.23505e-08 trig=  2.21412e-08
i_vdd_avg           =  -6.58493e-06 from=  5.00000e-09 to=  1.10001e-07
power_avg_uw        =  1.29493e+01


Total analysis time (seconds) = 0.33784

Total elapsed time (seconds) = 0.413 

Total DRAM available = 16384.000 MB.
DRAM currently available =  199.969 MB.
Maximum ngspice program size =   12.562 MB.
Current ngspice program size =   11.656 MB.

