
Note: No compatibility mode selected!


Circuit: NOR2 seed characterization sample 4110012

Doing analysis at TEMP = 74.842500 and TNOM = 27.000000

Using SPARSE 1.3 as Direct Linear Solver

Initial Transient Solution
--------------------------

Node                                   Voltage
----                                   -------
vdd                                    1.83078
in                                           0
out                                    1.83078
pmid                                   1.83078
vin#branch                                   0
vdd#branch                        -8.01537e-12

 Reference value :  4.49349e-08
 Reference value :  1.04329e-07
No. of Data Rows : 60044

  Measurements for Transient Analysis

tphl                =  1.97951e-10 targ=  2.41890e-09 trig=  2.22095e-09
tplh                =  5.39977e-10 targ=  2.32028e-08 trig=  2.26628e-08
i_vdd_avg           =  -5.19995e-06 from=  5.00000e-09 to=  1.10001e-07
power_avg_uw        =  9.51997e+00


Total analysis time (seconds) = 0.485392

Total elapsed time (seconds) = 0.558 

Total DRAM available = 16384.000 MB.
DRAM currently available =  230.750 MB.
Maximum ngspice program size =   12.562 MB.
Current ngspice program size =   11.625 MB.

