
Note: No compatibility mode selected!


Circuit: NOR2 seed characterization sample 4110037

Doing analysis at TEMP = 50.193800 and TNOM = 27.000000

Using SPARSE 1.3 as Direct Linear Solver

Initial Transient Solution
--------------------------

Node                                   Voltage
----                                   -------
vdd                                    1.86783
in                                           0
out                                    1.86783
pmid                                   1.86783
vin#branch                                   0
vdd#branch                        -4.03515e-12

 Reference value :  4.47362e-08
 Reference value :  1.04303e-07
No. of Data Rows : 60047

  Measurements for Transient Analysis

tphl                =  2.14702e-10 targ=  2.37928e-09 trig=  2.16458e-09
tplh                =  6.93192e-10 targ=  2.31869e-08 trig=  2.24937e-08
i_vdd_avg           =  -3.49150e-06 from=  5.00000e-09 to=  1.10001e-07
power_avg_uw        =  6.52153e+00


Total analysis time (seconds) = 0.485823

Total elapsed time (seconds) = 0.559 

Total DRAM available = 16384.000 MB.
DRAM currently available =  216.609 MB.
Maximum ngspice program size =   12.562 MB.
Current ngspice program size =   11.688 MB.

