
Note: No compatibility mode selected!


Circuit: INV seed characterization sample 4110042

Doing analysis at TEMP = 3.329460 and TNOM = 27.000000

Using SPARSE 1.3 as Direct Linear Solver

Initial Transient Solution
--------------------------

Node                                   Voltage
----                                   -------
vdd                                    1.94789
in                                           0
out                                    1.94789
vin#branch                                   0
vdd#branch                         -1.9623e-12

 Reference value :  6.18907e-08
No. of Data Rows : 60044

  Measurements for Transient Analysis

tphl                =  1.40623e-10 targ=  2.20148e-09 trig=  2.06086e-09
tplh                =  1.43023e-10 targ=  2.23256e-08 trig=  2.21826e-08
i_vdd_avg           =  -2.75593e-06 from=  5.00000e-09 to=  1.10000e-07
power_avg_uw        =  5.36825e+00


Total analysis time (seconds) = 0.335115

Total elapsed time (seconds) = 0.412 

Total DRAM available = 16384.000 MB.
DRAM currently available =  228.766 MB.
Maximum ngspice program size =   12.562 MB.
Current ngspice program size =   11.875 MB.

