
Note: No compatibility mode selected!


Circuit: NAND2 seed characterization sample 4110034

Doing analysis at TEMP = 76.918000 and TNOM = 27.000000

Using SPARSE 1.3 as Direct Linear Solver

Initial Transient Solution
--------------------------

Node                                   Voltage
----                                   -------
vdd                                    1.82499
in                                           0
out                                    1.82499
nmid                                 0.0451183
vin#branch                                   0
vdd#branch                        -2.45703e-12

 Reference value :  4.37665e-08
 Reference value :  1.02414e-07
No. of Data Rows : 60047

  Measurements for Transient Analysis

tphl                =  2.26835e-10 targ=  2.38856e-09 trig=  2.16173e-09
tplh                =  1.64324e-10 targ=  2.26495e-08 trig=  2.24852e-08
i_vdd_avg           =  -2.19650e-06 from=  5.00000e-09 to=  1.10002e-07
power_avg_uw        =  4.00859e+00


Total analysis time (seconds) = 0.498599

Total elapsed time (seconds) = 0.576 

Total DRAM available = 16384.000 MB.
DRAM currently available =  204.375 MB.
Maximum ngspice program size =   12.562 MB.
Current ngspice program size =   11.656 MB.

