
Note: No compatibility mode selected!


Circuit: NAND2 seed characterization sample 4110018

Doing analysis at TEMP = 21.555600 and TNOM = 27.000000

Using SPARSE 1.3 as Direct Linear Solver

Initial Transient Solution
--------------------------

Node                                   Voltage
----                                   -------
vdd                                    1.85763
in                                           0
out                                    1.85763
nmid                                0.00345951
vin#branch                                   0
vdd#branch                         -1.8773e-12

 Reference value :  4.74854e-08
 Reference value :  1.09408e-07
No. of Data Rows : 60044

  Measurements for Transient Analysis

tphl                =  6.26602e-10 targ=  2.66382e-09 trig=  2.03722e-09
tplh                =  3.34472e-10 targ=  2.24461e-08 trig=  2.21117e-08
i_vdd_avg           =  -4.16598e-06 from=  5.00000e-09 to=  1.10002e-07
power_avg_uw        =  7.73885e+00


Total analysis time (seconds) = 0.467147

Total elapsed time (seconds) = 0.537 

Total DRAM available = 16384.000 MB.
DRAM currently available =  239.297 MB.
Maximum ngspice program size =   12.562 MB.
Current ngspice program size =   12.141 MB.

