
Note: No compatibility mode selected!


Circuit: NOR2 seed characterization sample 4110041

Doing analysis at TEMP = 1.658740 and TNOM = 27.000000

Using SPARSE 1.3 as Direct Linear Solver

Initial Transient Solution
--------------------------

Node                                   Voltage
----                                   -------
vdd                                    1.80478
in                                           0
out                                    1.80478
pmid                                   1.80478
vin#branch                                   0
vdd#branch                        -3.63848e-12

 Reference value :  3.84623e-08
 Reference value :  8.93356e-08
No. of Data Rows : 60041

  Measurements for Transient Analysis

tphl                =  1.06599e-10 targ=  2.15791e-09 trig=  2.05132e-09
tplh                =  4.33024e-10 targ=  2.25870e-08 trig=  2.21539e-08
i_vdd_avg           =  -4.36678e-06 from=  5.00000e-09 to=  1.10000e-07
power_avg_uw        =  7.88108e+00


Total analysis time (seconds) = 0.542806

Total elapsed time (seconds) = 0.625 

Total DRAM available = 16384.000 MB.
DRAM currently available =  228.766 MB.
Maximum ngspice program size =   13.547 MB.
Current ngspice program size =   13.547 MB.

