
Note: No compatibility mode selected!


Circuit: NOR2 seed characterization sample 4110021

Doing analysis at TEMP = 45.939900 and TNOM = 27.000000

Using SPARSE 1.3 as Direct Linear Solver

Initial Transient Solution
--------------------------

Node                                   Voltage
----                                   -------
vdd                                    1.90329
in                                           0
out                                    1.90329
pmid                                   1.90329
vin#branch                                   0
vdd#branch                        -4.26201e-12

 Reference value :  3.96652e-08
 Reference value :  9.42971e-08
No. of Data Rows : 60044

  Measurements for Transient Analysis

tphl                =  1.15332e-10 targ=  2.15638e-09 trig=  2.04105e-09
tplh                =  5.03023e-10 targ=  2.26262e-08 trig=  2.21231e-08
i_vdd_avg           =  -4.72678e-06 from=  5.00000e-09 to=  1.10001e-07
power_avg_uw        =  8.99643e+00


Total analysis time (seconds) = 0.523769

Total elapsed time (seconds) = 0.601 

Total DRAM available = 16384.000 MB.
DRAM currently available =  204.938 MB.
Maximum ngspice program size =   12.625 MB.
Current ngspice program size =   11.719 MB.

