
Note: No compatibility mode selected!


Circuit: XOR2 seed characterization sample 4110029

Doing analysis at TEMP = 69.179900 and TNOM = 27.000000

Using SPARSE 1.3 as Direct Linear Solver

Initial Transient Solution
--------------------------

Node                                   Voltage
----                                   -------
vdd                                    1.67802
in                                           0
b                                      1.67802
abar                                   1.67802
bbar                               1.30639e-09
out                                    1.67802
vb#branch                                    0
vin#branch                         3.92836e-12
vdd#branch                        -1.41244e-11

 Reference value :  2.77002e-08
 Reference value :  6.36782e-08
 Reference value :  1.01731e-07
No. of Data Rows : 60044

  Measurements for Transient Analysis

tphl                =  4.45529e-10 targ=  2.61534e-09 trig=  2.16981e-09
tplh                =  5.16687e-10 targ=  2.30261e-08 trig=  2.25094e-08
i_vdd_avg           =  -6.91638e-06 from=  5.00000e-09 to=  1.10000e-07
power_avg_uw        =  1.16058e+01


Total analysis time (seconds) = 0.791578

Total elapsed time (seconds) = 0.860 

Total DRAM available = 16384.000 MB.
DRAM currently available =  224.266 MB.
Maximum ngspice program size =   12.609 MB.
Current ngspice program size =   11.750 MB.

