
Note: No compatibility mode selected!


Circuit: NAND2 seed characterization sample 4110004

Doing analysis at TEMP = 36.055300 and TNOM = 27.000000

Using SPARSE 1.3 as Direct Linear Solver

Initial Transient Solution
--------------------------

Node                                   Voltage
----                                   -------
vdd                                     1.8672
in                                           0
out                                     1.8672
nmid                                  0.014954
vin#branch                                   0
vdd#branch                        -1.92176e-12

 Reference value :  4.79891e-08
 Reference value :  1.10077e-07
No. of Data Rows : 60044

  Measurements for Transient Analysis

tphl                =  2.10689e-10 targ=  2.39874e-09 trig=  2.18805e-09
tplh                =  1.33674e-10 targ=  2.26978e-08 trig=  2.25642e-08
i_vdd_avg           =  -1.17680e-06 from=  5.00000e-09 to=  1.10001e-07
power_avg_uw        =  2.19733e+00


Total analysis time (seconds) = 0.466255

Total elapsed time (seconds) = 0.534 

Total DRAM available = 16384.000 MB.
DRAM currently available =  237.922 MB.
Maximum ngspice program size =   12.766 MB.
Current ngspice program size =   11.844 MB.

