
Note: No compatibility mode selected!


Circuit: INV seed characterization sample 4110038

Doing analysis at TEMP = 41.866900 and TNOM = 27.000000

Using SPARSE 1.3 as Direct Linear Solver

Initial Transient Solution
--------------------------

Node                                   Voltage
----                                   -------
vdd                                    1.92264
in                                           0
out                                    1.92264
vin#branch                                   0
vdd#branch                        -2.05919e-12

 Reference value :  7.06352e-08
No. of Data Rows : 60044

  Measurements for Transient Analysis

tphl                =  1.64444e-10 targ=  2.26149e-09 trig=  2.09705e-09
tplh                =  2.25483e-10 targ=  2.25166e-08 trig=  2.22912e-08
i_vdd_avg           =  -2.45270e-06 from=  5.00000e-09 to=  1.10001e-07
power_avg_uw        =  4.71566e+00


Total analysis time (seconds) = 0.304135

Total elapsed time (seconds) = 0.376 

Total DRAM available = 16384.000 MB.
DRAM currently available =  221.312 MB.
Maximum ngspice program size =   12.562 MB.
Current ngspice program size =   11.688 MB.

