
Note: No compatibility mode selected!


Circuit: INV seed characterization sample 4110020

Doing analysis at TEMP = 77.379900 and TNOM = 27.000000

Using SPARSE 1.3 as Direct Linear Solver

Initial Transient Solution
--------------------------

Node                                   Voltage
----                                   -------
vdd                                    1.82309
in                                           0
out                                    1.82309
vin#branch                                   0
vdd#branch                        -3.97309e-12

 Reference value :  7.21976e-08
No. of Data Rows : 60044

  Measurements for Transient Analysis

tphl                =  1.99242e-10 targ=  2.34440e-09 trig=  2.14516e-09
tplh                =  2.76907e-10 targ=  2.27124e-08 trig=  2.24355e-08
i_vdd_avg           =  -3.05196e-06 from=  5.00000e-09 to=  1.10002e-07
power_avg_uw        =  5.56400e+00


Total analysis time (seconds) = 0.291892

Total elapsed time (seconds) = 0.365 

Total DRAM available = 16384.000 MB.
DRAM currently available =  239.297 MB.
Maximum ngspice program size =   13.219 MB.
Current ngspice program size =   13.219 MB.

