
Note: No compatibility mode selected!


Circuit: XOR2 seed characterization sample 4401008

Doing analysis at TEMP = 92.522800 and TNOM = 27.000000

Using SPARSE 1.3 as Direct Linear Solver

Initial Transient Solution
--------------------------

Node                                   Voltage
----                                   -------
vdd                                    1.79104
in                                           0
b                                      1.79104
abar                                   1.79104
bbar                               6.95864e-08
out                                    1.79104
vb#branch                                    0
vin#branch                         1.09569e-09
vdd#branch                         -1.9626e-09

 Reference value :  2.65491e-08
 Reference value :  6.17641e-08
 Reference value :  9.92201e-08
No. of Data Rows : 60047

  Measurements for Transient Analysis

tphl                =  2.63717e-10 targ=  2.35925e-09 trig=  2.09553e-09
tplh                =  2.42149e-10 targ=  2.25287e-08 trig=  2.22866e-08
i_vdd_avg           =  -7.91202e-06 from=  5.00000e-09 to=  1.10001e-07
power_avg_uw        =  1.41707e+01


Total analysis time (seconds) = 0.795738

Total elapsed time (seconds) = 0.867 

Total DRAM available = 16384.000 MB.
DRAM currently available =  318.859 MB.
Maximum ngspice program size =   12.578 MB.
Current ngspice program size =   12.219 MB.

