
Note: No compatibility mode selected!


Circuit: INV seed characterization sample 4401045

Doing analysis at TEMP = -2.311710 and TNOM = 27.000000

Using SPARSE 1.3 as Direct Linear Solver

Initial Transient Solution
--------------------------

Node                                   Voltage
----                                   -------
vdd                                    1.78251
in                                           0
out                                    1.78251
vin#branch                                   0
vdd#branch                        -3.06468e-12

 Reference value :  7.22171e-08
No. of Data Rows : 60044

  Measurements for Transient Analysis

tphl                =  5.93736e-11 targ=  2.13939e-09 trig=  2.08002e-09
tplh                =  7.08261e-11 targ=  2.23109e-08 trig=  2.22400e-08
i_vdd_avg           =  -1.13041e-06 from=  5.00000e-09 to=  1.10001e-07
power_avg_uw        =  2.01496e+00


Total analysis time (seconds) = 0.297041

Total elapsed time (seconds) = 0.369 

Total DRAM available = 16384.000 MB.
DRAM currently available =  252.984 MB.
Maximum ngspice program size =   12.719 MB.
Current ngspice program size =   12.188 MB.

