
Note: No compatibility mode selected!


Circuit: XOR2 seed characterization sample 4401036

Doing analysis at TEMP = 57.734700 and TNOM = 27.000000

Using SPARSE 1.3 as Direct Linear Solver

Initial Transient Solution
--------------------------

Node                                   Voltage
----                                   -------
vdd                                    1.72137
in                                           0
b                                      1.72137
abar                                   1.72137
bbar                               5.45219e-09
out                                    1.72137
vb#branch                                    0
vin#branch                         1.11041e-10
vdd#branch                        -2.04521e-10

 Reference value :  2.64167e-08
 Reference value :  5.93808e-08
 Reference value :  9.57268e-08
No. of Data Rows : 60044

  Measurements for Transient Analysis

tphl                =  2.17625e-10 targ=  2.24755e-09 trig=  2.02992e-09
tplh                =  2.90976e-10 targ=  2.23807e-08 trig=  2.20898e-08
i_vdd_avg           =  -4.93773e-06 from=  5.00000e-09 to=  1.10001e-07
power_avg_uw        =  8.49965e+00


Total analysis time (seconds) = 0.824921

Total elapsed time (seconds) = 0.898 

Total DRAM available = 16384.000 MB.
DRAM currently available =  279.625 MB.
Maximum ngspice program size =   12.578 MB.
Current ngspice program size =   12.078 MB.

