
Note: No compatibility mode selected!


Circuit: NOR2 seed characterization sample 4401035

Doing analysis at TEMP = 65.814900 and TNOM = 27.000000

Using SPARSE 1.3 as Direct Linear Solver

Initial Transient Solution
--------------------------

Node                                   Voltage
----                                   -------
vdd                                    1.89269
in                                           0
out                                    1.89269
pmid                                   1.89269
vin#branch                                   0
vdd#branch                        -9.57316e-11

 Reference value :  4.64675e-08
 Reference value :  1.04194e-07
No. of Data Rows : 60041

  Measurements for Transient Analysis

tphl                =  2.02255e-10 targ=  2.41152e-09 trig=  2.20926e-09
tplh                =  7.92657e-10 targ=  2.34204e-08 trig=  2.26278e-08
i_vdd_avg           =  -3.90839e-06 from=  5.00000e-09 to=  1.10000e-07
power_avg_uw        =  7.39737e+00


Total analysis time (seconds) = 0.492077

Total elapsed time (seconds) = 0.561 

Total DRAM available = 16384.000 MB.
DRAM currently available =  306.578 MB.
Maximum ngspice program size =   12.562 MB.
Current ngspice program size =   11.844 MB.

