
Note: No compatibility mode selected!


Circuit: NAND2 seed characterization sample 4401018

Doing analysis at TEMP = 26.638000 and TNOM = 27.000000

Using SPARSE 1.3 as Direct Linear Solver

Initial Transient Solution
--------------------------

Node                                   Voltage
----                                   -------
vdd                                    1.95345
in                                           0
out                                    1.95345
nmid                                 0.0564039
vin#branch                                   0
vdd#branch                        -3.88698e-12

 Reference value :  4.69520e-08
 Reference value :  1.09091e-07
No. of Data Rows : 60041

  Measurements for Transient Analysis

tphl                =  2.05897e-10 targ=  2.44638e-09 trig=  2.24048e-09
tplh                =  9.22422e-11 targ=  2.28137e-08 trig=  2.27214e-08
i_vdd_avg           =  -3.05553e-06 from=  5.00000e-09 to=  1.10001e-07
power_avg_uw        =  5.96883e+00


Total analysis time (seconds) = 0.466407

Total elapsed time (seconds) = 0.537 

Total DRAM available = 16384.000 MB.
DRAM currently available =  303.484 MB.
Maximum ngspice program size =   12.562 MB.
Current ngspice program size =   11.828 MB.

