
Note: No compatibility mode selected!


Circuit: INV seed characterization sample 4401041

Doing analysis at TEMP = 89.835900 and TNOM = 27.000000

Using SPARSE 1.3 as Direct Linear Solver

Initial Transient Solution
--------------------------

Node                                   Voltage
----                                   -------
vdd                                    1.83019
in                                           0
out                                    1.83019
vin#branch                                   0
vdd#branch                        -4.87723e-10

 Reference value :  7.23278e-08
No. of Data Rows : 60047

  Measurements for Transient Analysis

tphl                =  1.30147e-10 targ=  2.25086e-09 trig=  2.12071e-09
tplh                =  1.79875e-10 targ=  2.25420e-08 trig=  2.23621e-08
i_vdd_avg           =  -2.99643e-06 from=  5.00000e-09 to=  1.10002e-07
power_avg_uw        =  5.48403e+00


Total analysis time (seconds) = 0.299442

Total elapsed time (seconds) = 0.371 

Total DRAM available = 16384.000 MB.
DRAM currently available =  280.578 MB.
Maximum ngspice program size =   12.562 MB.
Current ngspice program size =   11.719 MB.

