
Note: No compatibility mode selected!


Circuit: NOR2 seed characterization sample 4401007

Doing analysis at TEMP = 15.763900 and TNOM = 27.000000

Using SPARSE 1.3 as Direct Linear Solver

Initial Transient Solution
--------------------------

Node                                   Voltage
----                                   -------
vdd                                    1.71272
in                                           0
out                                    1.71272
pmid                                   1.71272
vin#branch                                   0
vdd#branch                        -1.98528e-11

 Reference value :  4.56903e-08
 Reference value :  1.06408e-07
No. of Data Rows : 60047

  Measurements for Transient Analysis

tphl                =  9.47198e-11 targ=  2.34137e-09 trig=  2.24665e-09
tplh                =  3.58827e-10 targ=  2.30988e-08 trig=  2.27400e-08
i_vdd_avg           =  -3.84118e-06 from=  5.00000e-09 to=  1.10002e-07
power_avg_uw        =  6.57887e+00


Total analysis time (seconds) = 0.478174

Total elapsed time (seconds) = 0.549 

Total DRAM available = 16384.000 MB.
DRAM currently available =  318.859 MB.
Maximum ngspice program size =   12.641 MB.
Current ngspice program size =   11.984 MB.

