
Note: No compatibility mode selected!


Circuit: NAND2 seed characterization sample 4401010

Doing analysis at TEMP = 34.369300 and TNOM = 27.000000

Using SPARSE 1.3 as Direct Linear Solver

Initial Transient Solution
--------------------------

Node                                   Voltage
----                                   -------
vdd                                    1.67571
in                                           0
out                                    1.67571
nmid                                 0.0510366
vin#branch                                   0
vdd#branch                        -3.74007e-12

 Reference value :  4.78314e-08
 Reference value :  1.09950e-07
No. of Data Rows : 60044

  Measurements for Transient Analysis

tphl                =  3.73953e-10 targ=  2.44117e-09 trig=  2.06722e-09
tplh                =  2.05306e-10 targ=  2.24070e-08 trig=  2.22017e-08
i_vdd_avg           =  -4.78799e-06 from=  5.00000e-09 to=  1.10002e-07
power_avg_uw        =  8.02328e+00


Total analysis time (seconds) = 0.465696

Total elapsed time (seconds) = 0.534 

Total DRAM available = 16384.000 MB.
DRAM currently available =  319.375 MB.
Maximum ngspice program size =   12.562 MB.
Current ngspice program size =   11.594 MB.

