
Note: No compatibility mode selected!


Circuit: NAND2 seed characterization sample 4401022

Doing analysis at TEMP = 84.502900 and TNOM = 27.000000

Using SPARSE 1.3 as Direct Linear Solver

Initial Transient Solution
--------------------------

Node                                   Voltage
----                                   -------
vdd                                    1.81276
in                                           0
out                                    1.81276
nmid                                 0.0575782
vin#branch                                   0
vdd#branch                        -8.45824e-11

 Reference value :  4.62385e-08
 Reference value :  1.06796e-07
No. of Data Rows : 60047

  Measurements for Transient Analysis

tphl                =  2.90840e-10 targ=  2.47757e-09 trig=  2.18673e-09
tplh                =  1.25981e-10 targ=  2.26862e-08 trig=  2.25602e-08
i_vdd_avg           =  -5.30359e-06 from=  5.00000e-09 to=  1.10002e-07
power_avg_uw        =  9.61414e+00


Total analysis time (seconds) = 0.475746

Total elapsed time (seconds) = 0.547 

Total DRAM available = 16384.000 MB.
DRAM currently available =  326.609 MB.
Maximum ngspice program size =   12.562 MB.
Current ngspice program size =   11.969 MB.

