
Note: No compatibility mode selected!


Circuit: NOR2 seed characterization sample 4401023

Doing analysis at TEMP = 87.497900 and TNOM = 27.000000

Using SPARSE 1.3 as Direct Linear Solver

Initial Transient Solution
--------------------------

Node                                   Voltage
----                                   -------
vdd                                    1.87559
in                                           0
out                                    1.87559
pmid                                   1.87559
vin#branch                                   0
vdd#branch                        -1.19453e-09

 Reference value :  4.63602e-08
 Reference value :  1.06449e-07
No. of Data Rows : 60047

  Measurements for Transient Analysis

tphl                =  9.13676e-11 targ=  2.18795e-09 trig=  2.09659e-09
tplh                =  3.54862e-10 targ=  2.26446e-08 trig=  2.22898e-08
i_vdd_avg           =  -5.27454e-06 from=  5.00000e-09 to=  1.10001e-07
power_avg_uw        =  9.89288e+00


Total analysis time (seconds) = 0.47958

Total elapsed time (seconds) = 0.550 

Total DRAM available = 16384.000 MB.
DRAM currently available =  326.609 MB.
Maximum ngspice program size =   12.562 MB.
Current ngspice program size =   11.656 MB.

