
Note: No compatibility mode selected!


Circuit: NAND2 seed characterization sample 4401026

Doing analysis at TEMP = 5.553430 and TNOM = 27.000000

Using SPARSE 1.3 as Direct Linear Solver

Initial Transient Solution
--------------------------

Node                                   Voltage
----                                   -------
vdd                                    1.65907
in                                           0
out                                    1.65907
nmid                                 0.0452475
vin#branch                                   0
vdd#branch                        -2.14235e-12

 Reference value :  4.68612e-08
 Reference value :  1.07767e-07
No. of Data Rows : 60044

  Measurements for Transient Analysis

tphl                =  1.67052e-10 targ=  2.32116e-09 trig=  2.15411e-09
tplh                =  8.68779e-11 targ=  2.25492e-08 trig=  2.24623e-08
i_vdd_avg           =  -2.28841e-06 from=  5.00000e-09 to=  1.10001e-07
power_avg_uw        =  3.79663e+00


Total analysis time (seconds) = 0.473023

Total elapsed time (seconds) = 0.543 

Total DRAM available = 16384.000 MB.
DRAM currently available =  306.406 MB.
Maximum ngspice program size =   12.562 MB.
Current ngspice program size =   11.594 MB.

