
Note: No compatibility mode selected!


Circuit: NAND2 seed characterization sample 4401046

Doing analysis at TEMP = 45.868800 and TNOM = 27.000000

Using SPARSE 1.3 as Direct Linear Solver

Initial Transient Solution
--------------------------

Node                                   Voltage
----                                   -------
vdd                                    1.83582
in                                           0
out                                    1.83582
nmid                                 0.0550133
vin#branch                                   0
vdd#branch                        -3.57737e-12

 Reference value :  4.51223e-08
 Reference value :  1.05412e-07
No. of Data Rows : 60047

  Measurements for Transient Analysis

tphl                =  3.78210e-10 targ=  2.41588e-09 trig=  2.03767e-09
tplh                =  1.25502e-10 targ=  2.22385e-08 trig=  2.21130e-08
i_vdd_avg           =  -2.55361e-06 from=  5.00000e-09 to=  1.10002e-07
power_avg_uw        =  4.68797e+00


Total analysis time (seconds) = 0.477775

Total elapsed time (seconds) = 0.553 

Total DRAM available = 16384.000 MB.
DRAM currently available =  252.984 MB.
Maximum ngspice program size =   15.016 MB.
Current ngspice program size =   15.016 MB.

