
Note: No compatibility mode selected!


Circuit: NOR2 seed characterization sample 4401011

Doing analysis at TEMP = 37.771400 and TNOM = 27.000000

Using SPARSE 1.3 as Direct Linear Solver

Initial Transient Solution
--------------------------

Node                                   Voltage
----                                   -------
vdd                                    1.95388
in                                           0
out                                    1.95388
pmid                                   1.95388
vin#branch                                   0
vdd#branch                        -8.96839e-11

 Reference value :  4.68986e-08
 Reference value :  1.07988e-07
No. of Data Rows : 60044

  Measurements for Transient Analysis

tphl                =  9.35758e-11 targ=  2.27638e-09 trig=  2.18280e-09
tplh                =  2.43299e-10 targ=  2.27917e-08 trig=  2.25484e-08
i_vdd_avg           =  -5.43446e-06 from=  5.00000e-09 to=  1.10000e-07
power_avg_uw        =  1.06183e+01


Total analysis time (seconds) = 0.47409

Total elapsed time (seconds) = 0.543 

Total DRAM available = 16384.000 MB.
DRAM currently available =  319.375 MB.
Maximum ngspice program size =   12.562 MB.
Current ngspice program size =   11.594 MB.

