
Note: No compatibility mode selected!


Circuit: XOR2 seed characterization sample 4401012

Doing analysis at TEMP = 49.975300 and TNOM = 27.000000

Using SPARSE 1.3 as Direct Linear Solver

Initial Transient Solution
--------------------------

Node                                   Voltage
----                                   -------
vdd                                    1.96347
in                                           0
b                                      1.96347
abar                                   1.96347
bbar                               8.70044e-09
out                                    1.96347
vb#branch                                    0
vin#branch                         2.14474e-11
vdd#branch                        -4.82951e-11

 Reference value :  2.67823e-08
 Reference value :  6.19807e-08
 Reference value :  9.94487e-08
No. of Data Rows : 60044

  Measurements for Transient Analysis

tphl                =  5.86916e-10 targ=  2.62774e-09 trig=  2.04083e-09
tplh                =  5.86327e-10 targ=  2.27088e-08 trig=  2.21225e-08
i_vdd_avg           =  -5.71273e-06 from=  5.00000e-09 to=  1.10000e-07
power_avg_uw        =  1.12168e+01


Total analysis time (seconds) = 0.793614

Total elapsed time (seconds) = 0.864 

Total DRAM available = 16384.000 MB.
DRAM currently available =  319.375 MB.
Maximum ngspice program size =   12.562 MB.
Current ngspice program size =   11.875 MB.

