
Note: No compatibility mode selected!


Circuit: NOR2 seed characterization sample 4401031

Doing analysis at TEMP = 74.625200 and TNOM = 27.000000

Using SPARSE 1.3 as Direct Linear Solver

Initial Transient Solution
--------------------------

Node                                   Voltage
----                                   -------
vdd                                     1.9121
in                                           0
out                                     1.9121
pmid                                    1.9121
vin#branch                                   0
vdd#branch                        -1.23936e-10

 Reference value :  4.21590e-08
 Reference value :  1.02895e-07
No. of Data Rows : 60044

  Measurements for Transient Analysis

tphl                =  9.30822e-11 targ=  2.23511e-09 trig=  2.14203e-09
tplh                =  2.74093e-10 targ=  2.27002e-08 trig=  2.24261e-08
i_vdd_avg           =  -1.09971e-06 from=  5.00000e-09 to=  1.10001e-07
power_avg_uw        =  2.10276e+00


Total analysis time (seconds) = 0.479054

Total elapsed time (seconds) = 0.565 

Total DRAM available = 16384.000 MB.
DRAM currently available =  306.594 MB.
Maximum ngspice program size =   13.234 MB.
Current ngspice program size =   12.141 MB.

