
Note: No compatibility mode selected!


Circuit: INV seed characterization sample 4401009

Doing analysis at TEMP = 75.589000 and TNOM = 27.000000

Using SPARSE 1.3 as Direct Linear Solver

Initial Transient Solution
--------------------------

Node                                   Voltage
----                                   -------
vdd                                    1.64804
in                                           0
out                                    1.64804
vin#branch                                   0
vdd#branch                        -3.23935e-10

 Reference value :  7.43932e-08
No. of Data Rows : 60044

  Measurements for Transient Analysis

tphl                =  1.41512e-10 targ=  2.20057e-09 trig=  2.05906e-09
tplh                =  1.43274e-10 targ=  2.23205e-08 trig=  2.21772e-08
i_vdd_avg           =  -5.13914e-06 from=  5.00000e-09 to=  1.10001e-07
power_avg_uw        =  8.46951e+00


Total analysis time (seconds) = 0.287963

Total elapsed time (seconds) = 0.356 

Total DRAM available = 16384.000 MB.
DRAM currently available =  319.375 MB.
Maximum ngspice program size =   12.562 MB.
Current ngspice program size =   11.625 MB.

