
Note: No compatibility mode selected!


Circuit: NAND2 seed characterization sample 4401042

Doing analysis at TEMP = 50.766200 and TNOM = 27.000000

Using SPARSE 1.3 as Direct Linear Solver

Initial Transient Solution
--------------------------

Node                                   Voltage
----                                   -------
vdd                                    1.77596
in                                           0
out                                    1.77596
nmid                                 0.0546286
vin#branch                                   0
vdd#branch                        -5.16197e-12

 Reference value :  4.57279e-08
 Reference value :  1.05982e-07
No. of Data Rows : 60044

  Measurements for Transient Analysis

tphl                =  2.11444e-10 targ=  2.21889e-09 trig=  2.00745e-09
tplh                =  5.81018e-11 targ=  2.20805e-08 trig=  2.20223e-08
i_vdd_avg           =  -1.83919e-06 from=  5.00000e-09 to=  1.10000e-07
power_avg_uw        =  3.26633e+00


Total analysis time (seconds) = 0.477729

Total elapsed time (seconds) = 0.551 

Total DRAM available = 16384.000 MB.
DRAM currently available =  280.578 MB.
Maximum ngspice program size =   12.562 MB.
Current ngspice program size =   11.781 MB.

