
Note: No compatibility mode selected!


Circuit: INV seed characterization sample 4401001

Doing analysis at TEMP = 62.979400 and TNOM = 27.000000

Using SPARSE 1.3 as Direct Linear Solver

Initial Transient Solution
--------------------------

Node                                   Voltage
----                                   -------
vdd                                    1.93803
in                                           0
out                                    1.93803
vin#branch                                   0
vdd#branch                        -4.45535e-11

 Reference value :  7.11090e-08
No. of Data Rows : 60044

  Measurements for Transient Analysis

tphl                =  3.40150e-10 targ=  2.47615e-09 trig=  2.13600e-09
tplh                =  4.53336e-10 targ=  2.28613e-08 trig=  2.24080e-08
i_vdd_avg           =  -4.99119e-06 from=  5.00000e-09 to=  1.10001e-07
power_avg_uw        =  9.67307e+00


Total analysis time (seconds) = 0.300975

Total elapsed time (seconds) = 0.373 

Total DRAM available = 16384.000 MB.
DRAM currently available =  300.734 MB.
Maximum ngspice program size =   12.562 MB.
Current ngspice program size =   12.000 MB.

