
Note: No compatibility mode selected!


Circuit: INV seed characterization sample 4401005

Doing analysis at TEMP = 18.111900 and TNOM = 27.000000

Using SPARSE 1.3 as Direct Linear Solver

Initial Transient Solution
--------------------------

Node                                   Voltage
----                                   -------
vdd                                    1.66332
in                                           0
out                                    1.66332
vin#branch                                   0
vdd#branch                        -5.01516e-12

 Reference value :  7.22634e-08
No. of Data Rows : 60047

  Measurements for Transient Analysis

tphl                =  1.64906e-10 targ=  2.33651e-09 trig=  2.17160e-09
tplh                =  1.78766e-10 targ=  2.26936e-08 trig=  2.25148e-08
i_vdd_avg           =  -1.98089e-06 from=  5.00000e-09 to=  1.10001e-07
power_avg_uw        =  3.29486e+00


Total analysis time (seconds) = 0.293739

Total elapsed time (seconds) = 0.364 

Total DRAM available = 16384.000 MB.
DRAM currently available =  318.859 MB.
Maximum ngspice program size =   12.562 MB.
Current ngspice program size =   11.688 MB.

