
Note: No compatibility mode selected!


Circuit: NOR2 seed characterization sample 4401043

Doing analysis at TEMP = 81.392000 and TNOM = 27.000000

Using SPARSE 1.3 as Direct Linear Solver

Initial Transient Solution
--------------------------

Node                                   Voltage
----                                   -------
vdd                                    1.86421
in                                           0
out                                    1.86421
pmid                                   1.86421
vin#branch                                   0
vdd#branch                        -9.40034e-10

 Reference value :  4.47925e-08
 Reference value :  1.03808e-07
No. of Data Rows : 60047

  Measurements for Transient Analysis

tphl                =  5.16370e-11 targ=  2.17637e-09 trig=  2.12473e-09
tplh                =  1.96260e-10 targ=  2.25704e-08 trig=  2.23742e-08
i_vdd_avg           =  -2.36198e-06 from=  5.00000e-09 to=  1.10002e-07
power_avg_uw        =  4.40323e+00


Total analysis time (seconds) = 0.487375

Total elapsed time (seconds) = 0.561 

Total DRAM available = 16384.000 MB.
DRAM currently available =  280.578 MB.
Maximum ngspice program size =   12.656 MB.
Current ngspice program size =   11.812 MB.

