
Note: No compatibility mode selected!


Circuit: INV seed characterization sample 4401025

Doing analysis at TEMP = 23.806500 and TNOM = 27.000000

Using SPARSE 1.3 as Direct Linear Solver

Initial Transient Solution
--------------------------

Node                                   Voltage
----                                   -------
vdd                                    1.88522
in                                           0
out                                    1.88522
vin#branch                                   0
vdd#branch                        -7.58013e-12

 Reference value :  7.41194e-08
No. of Data Rows : 60047

  Measurements for Transient Analysis

tphl                =  1.07398e-10 targ=  2.20599e-09 trig=  2.09859e-09
tplh                =  1.14047e-10 targ=  2.24098e-08 trig=  2.22958e-08
i_vdd_avg           =  -1.72834e-06 from=  5.00000e-09 to=  1.10001e-07
power_avg_uw        =  3.25830e+00


Total analysis time (seconds) = 0.293144

Total elapsed time (seconds) = 0.362 

Total DRAM available = 16384.000 MB.
DRAM currently available =  306.406 MB.
Maximum ngspice program size =   12.562 MB.
Current ngspice program size =   11.594 MB.

