
Note: No compatibility mode selected!


Circuit: GF180MCU library cell nand3_1 A1_to_ZN__A2=1,A3=1

Doing analysis at TEMP = -25.533889 and TNOM = 27.000000

Using SPARSE 1.3 as Direct Linear Solver

Initial Transient Solution
--------------------------

Node                                   Voltage
----                                   -------
vdd                                    1.75198
a1                                           0
a2                                     1.75198
a3                                     1.75198
xu1.net_1                          1.02329e-12
xu1.net_0                          2.04652e-12
zn                                     1.75198
vfix_a3#branch                               0
vfix_a2#branch                               0
vin#branch                                   0
vdd#branch                        -1.76219e-12

 Reference value :  7.19364e-08
 Reference value :  1.75335e-07
 Reference value :  2.81115e-07
No. of Data Rows : 68032

  Measurements for Transient Analysis

tphl                =  3.72679e-09 targ=  3.17612e-08 trig=  2.80345e-08
tplh                =  4.85193e-09 targ=  1.10955e-07 trig=  1.06103e-07
i_vdd_avg           =  -6.15091e-07 from=  1.00000e-08 to=  3.30000e-07
power_avg_uw        =  1.07763e+00


Total analysis time (seconds) = 1.09531

Total elapsed time (seconds) = 1.157 

Total DRAM available = 16384.000 MB.
DRAM currently available =  114.094 MB.
Maximum ngspice program size =   15.109 MB.
Current ngspice program size =   15.109 MB.

