
Note: No compatibility mode selected!


Circuit: GF180MCU library cell nand3_1 A1_to_ZN__A2=1,A3=1

Doing analysis at TEMP = 101.015600 and TNOM = 27.000000

Using SPARSE 1.3 as Direct Linear Solver

Initial Transient Solution
--------------------------

Node                                   Voltage
----                                   -------
vdd                                    1.70794
a1                                           0
a2                                     1.70794
a3                                     1.70794
xu1.net_1                          3.58794e-08
xu1.net_0                          7.17589e-08
zn                                     1.70794
vfix_a3#branch                               0
vfix_a2#branch                               0
vin#branch                                   0
vdd#branch                        -6.60091e-12

 Reference value :  9.70333e-08
 Reference value :  1.99868e-07
 Reference value :  2.97079e-07
No. of Data Rows : 68032

  Measurements for Transient Analysis

tphl                =  8.10592e-09 targ=  3.53588e-08 trig=  2.72529e-08
tplh                =  9.38948e-09 targ=  1.13148e-07 trig=  1.03759e-07
i_vdd_avg           =  -1.63737e-06 from=  1.00000e-08 to=  3.30004e-07
power_avg_uw        =  2.79654e+00


Total analysis time (seconds) = 1.01867

Total elapsed time (seconds) = 1.080 

Total DRAM available = 16384.000 MB.
DRAM currently available =  108.438 MB.
Maximum ngspice program size =   13.094 MB.
Current ngspice program size =   13.031 MB.

