
Note: No compatibility mode selected!


Circuit: GF180MCU library cell nand2_4 A1_to_ZN__A2=1

Doing analysis at TEMP = 123.054440 and TNOM = 27.000000

Using SPARSE 1.3 as Direct Linear Solver

Initial Transient Solution
--------------------------

Node                                   Voltage
----                                   -------
vdd                                    1.80369
a1                                           0
a2                                     1.80369
xu1.net_0_0                        1.16462e-06
zn                                     1.80369
xu1.net_0_1                        1.16462e-06
xu1.net_0_2                        1.16462e-06
xu1.net_0_3                        1.16462e-06
vfix_a2#branch                               0
vin#branch                                   0
vdd#branch                        -8.69202e-10

 Reference value :  3.99679e-08
 Reference value :  9.08229e-08
 Reference value :  1.41343e-07
 Reference value :  1.91683e-07
 Reference value :  2.43218e-07
 Reference value :  2.94863e-07
No. of Data Rows : 68032

  Measurements for Transient Analysis

tphl                =  1.35468e-09 targ=  2.85949e-08 trig=  2.72402e-08
tplh                =  2.32651e-09 targ=  1.06047e-07 trig=  1.03721e-07
i_vdd_avg           =  -1.66510e-06 from=  1.00000e-08 to=  3.30003e-07
power_avg_uw        =  3.00332e+00


Total analysis time (seconds) = 2.0752

Total elapsed time (seconds) = 2.128 

Total DRAM available = 16384.000 MB.
DRAM currently available =  132.031 MB.
Maximum ngspice program size =   12.859 MB.
Current ngspice program size =   12.750 MB.

