
Note: No compatibility mode selected!


Circuit: GF180MCU library cell mux2_4 I0_to_Z__I1=0,S=0

Doing analysis at TEMP = 63.884256 and TNOM = 27.000000

Using SPARSE 1.3 as Direct Linear Solver

Initial Transient Solution
--------------------------

Node                                   Voltage
----                                   -------
vdd                                     1.6368
i0                                           0
i1                                           0
s                                            0
xu1.int04                               1.6368
z                                  9.75246e-09
xu1.net_1                            0.0456685
xu1.net_3                              1.20855
xu1.sel1_n                              1.6368
xu1.net_0                               1.6368
xu1.net_2                               1.6368
vfix_s#branch                                0
vfix_i1#branch                               0
vin#branch                                   0
vdd#branch                        -3.72913e-11

 Reference value :  3.04325e-08
 Reference value :  6.95864e-08
 Reference value :  1.05126e-07
 Reference value :  1.45505e-07
 Reference value :  1.82095e-07
 Reference value :  2.19621e-07
 Reference value :  2.61201e-07
 Reference value :  2.99975e-07
 Reference value :  3.38110e-07
No. of Data Rows : 68032

  Measurements for Transient Analysis

tplh                =  1.49942e-09 targ=  3.09839e-08 trig=  2.94845e-08
tphl                =  3.13797e-09 targ=  1.13591e-07 trig=  1.10453e-07
i_vdd_avg           =  -7.28349e-07 from=  1.00000e-08 to=  3.30000e-07
power_avg_uw        =  1.19216e+00


Total analysis time (seconds) = 2.81198

Total elapsed time (seconds) = 2.871 

Total DRAM available = 16384.000 MB.
DRAM currently available =   82.281 MB.
Maximum ngspice program size =   14.656 MB.
Current ngspice program size =   14.656 MB.

