
Note: No compatibility mode selected!


Circuit: GF180MCU library cell oai21_4 A1_to_ZN__A2=0,B=1

Doing analysis at TEMP = -6.204591 and TNOM = 27.000000

Using SPARSE 1.3 as Direct Linear Solver

Initial Transient Solution
--------------------------

Node                                   Voltage
----                                   -------
vdd                                    1.94266
a1                                           0
a2                                           0
b                                      1.94266
zn                                     1.94266
xu1.net_0                          6.82904e-13
xu1.net_1_0                            1.94266
xu1.net_1_1                            1.94266
xu1.net_1_2                            1.94266
xu1.net_1_3                            1.94266
vfix_b#branch                                0
vfix_a2#branch                               0
vin#branch                                   0
vdd#branch                        -1.56217e-11

 Reference value :  2.98875e-08
 Reference value :  6.23336e-08
 Reference value :  9.22486e-08
 Reference value :  1.22915e-07
 Reference value :  1.55155e-07
 Reference value :  1.86803e-07
 Reference value :  2.19349e-07
 Reference value :  2.49899e-07
 Reference value :  2.76810e-07
 Reference value :  3.06890e-07
 Reference value :  3.38065e-07
No. of Data Rows : 68032

  Measurements for Transient Analysis

tphl                =  2.41334e-09 targ=  3.18939e-08 trig=  2.94805e-08
tplh                =  4.98078e-09 targ=  1.15422e-07 trig=  1.10442e-07
i_vdd_avg           =  -8.51097e-07 from=  1.00000e-08 to=  3.30005e-07
power_avg_uw        =  1.65339e+00


Total analysis time (seconds) = 3.43241

Total elapsed time (seconds) = 3.490 

Total DRAM available = 16384.000 MB.
DRAM currently available =  101.031 MB.
Maximum ngspice program size =   14.938 MB.
Current ngspice program size =   14.938 MB.

