
Note: No compatibility mode selected!


Circuit: GF180MCU library cell aoi21_4 A1_to_ZN__A2=1,B=0

Doing analysis at TEMP = 69.156479 and TNOM = 27.000000

Using SPARSE 1.3 as Direct Linear Solver

Initial Transient Solution
--------------------------

Node                                   Voltage
----                                   -------
vdd                                    1.89859
a1                                           0
a2                                     1.89859
b                                            0
xu1.net_0_0                        7.78946e-08
zn                                     1.89858
xu1.net_0_1                        7.78946e-08
xu1.net_0_2                        7.78946e-08
xu1.net_0_3                        7.78946e-08
xu1.net_1                              1.89859
vfix_b#branch                                0
vfix_a2#branch                               0
vin#branch                                   0
vdd#branch                        -1.59669e-10

 Reference value :  2.17314e-08
 Reference value :  5.34259e-08
 Reference value :  8.53409e-08
 Reference value :  1.15479e-07
 Reference value :  1.47904e-07
 Reference value :  1.78809e-07
 Reference value :  2.11226e-07
 Reference value :  2.41996e-07
 Reference value :  2.71376e-07
 Reference value :  3.02154e-07
 Reference value :  3.33184e-07
No. of Data Rows : 68034

  Measurements for Transient Analysis

tphl                =  7.33848e-10 targ=  2.92180e-08 trig=  2.84842e-08
tplh                =  2.67634e-09 targ=  1.10129e-07 trig=  1.07453e-07
i_vdd_avg           =  -1.25306e-06 from=  1.00000e-08 to=  3.30004e-07
power_avg_uw        =  2.37903e+00


Total analysis time (seconds) = 3.49191

Total elapsed time (seconds) = 3.553 

Total DRAM available = 16384.000 MB.
DRAM currently available =  130.188 MB.
Maximum ngspice program size =   15.391 MB.
Current ngspice program size =   15.391 MB.

