
Note: No compatibility mode selected!


Circuit: GF180MCU library cell inv_4 I_to_ZN

Doing analysis at TEMP = 82.216035 and TNOM = 27.000000

Using SPARSE 1.3 as Direct Linear Solver

Initial Transient Solution
--------------------------

Node                                   Voltage
----                                   -------
vdd                                    1.69075
i                                            0
zn                                     1.69075
vin#branch                                   0
vdd#branch                        -7.21879e-12

 Reference value :  7.62906e-08
 Reference value :  1.74564e-07
 Reference value :  2.71084e-07
No. of Data Rows : 68034

  Measurements for Transient Analysis

tphl                =  6.56973e-10 targ=  2.69235e-08 trig=  2.62666e-08
tplh                =  1.36865e-09 targ=  1.02168e-07 trig=  1.00800e-07
i_vdd_avg           =  -1.12222e-07 from=  1.00000e-08 to=  3.30004e-07
power_avg_uw        =  1.89740e-01


Total analysis time (seconds) = 1.10749

Total elapsed time (seconds) = 1.177 

Total DRAM available = 16384.000 MB.
DRAM currently available =  106.781 MB.
Maximum ngspice program size =   16.094 MB.
Current ngspice program size =   16.094 MB.

