
Note: No compatibility mode selected!


Circuit: GF180MCU library cell inv_1 I_to_ZN

Doing analysis at TEMP = 108.863680 and TNOM = 27.000000

Using SPARSE 1.3 as Direct Linear Solver

Initial Transient Solution
--------------------------

Node                                   Voltage
----                                   -------
vdd                                    1.96002
i                                            0
zn                                     1.96002
vin#branch                                   0
vdd#branch                        -1.28294e-10

 Reference value :  2.00272e-07
No. of Data Rows : 68032

  Measurements for Transient Analysis

tphl                =  1.26087e-09 targ=  2.65683e-08 trig=  2.53074e-08
tplh                =  2.24032e-09 targ=  1.00163e-07 trig=  9.79222e-08
i_vdd_avg           =  -9.59001e-07 from=  1.00000e-08 to=  3.30002e-07
power_avg_uw        =  1.87966e+00


Total analysis time (seconds) = 0.389792

Total elapsed time (seconds) = 0.496 

Total DRAM available = 16384.000 MB.
DRAM currently available =   74.906 MB.
Maximum ngspice program size =   18.328 MB.
Current ngspice program size =   18.328 MB.

