
Note: No compatibility mode selected!


Circuit: GF180MCU library cell mux2_4 I0_to_Z__I1=0,S=0

Doing analysis at TEMP = 72.522191 and TNOM = 27.000000

Using SPARSE 1.3 as Direct Linear Solver

Initial Transient Solution
--------------------------

Node                                   Voltage
----                                   -------
vdd                                    1.88539
i0                                           0
i1                                           0
s                                            0
xu1.int04                              1.88539
z                                  1.03238e-08
xu1.net_1                            0.0497683
xu1.net_3                               1.4117
xu1.sel1_n                             1.88539
xu1.net_0                              1.88539
xu1.net_2                              1.88539
vfix_s#branch                                0
vfix_i1#branch                               0
vin#branch                                   0
vdd#branch                        -5.82457e-11

 Reference value :  3.24156e-08
 Reference value :  6.98156e-08
 Reference value :  1.08659e-07
 Reference value :  1.47399e-07
 Reference value :  1.85143e-07
 Reference value :  2.23051e-07
 Reference value :  2.59991e-07
 Reference value :  2.99509e-07
 Reference value :  3.38304e-07
No. of Data Rows : 68034

  Measurements for Transient Analysis

tplh                =  8.04598e-10 targ=  2.76012e-08 trig=  2.67966e-08
tphl                =  1.73104e-09 targ=  1.04121e-07 trig=  1.02390e-07
i_vdd_avg           =  -4.97060e-07 from=  1.00000e-08 to=  3.30004e-07
power_avg_uw        =  9.37154e-01


Total analysis time (seconds) = 2.82804

Total elapsed time (seconds) = 2.891 

Total DRAM available = 16384.000 MB.
DRAM currently available =  119.547 MB.
Maximum ngspice program size =   14.531 MB.
Current ngspice program size =   14.531 MB.

