
Note: No compatibility mode selected!


Circuit: GF180MCU library cell aoi21_4 A1_to_ZN__A2=1,B=0

Doing analysis at TEMP = 10.081911 and TNOM = 27.000000

Using SPARSE 1.3 as Direct Linear Solver

Initial Transient Solution
--------------------------

Node                                   Voltage
----                                   -------
vdd                                    1.73701
a1                                           0
a2                                     1.73701
b                                            0
xu1.net_0_0                        2.31548e-12
zn                                     1.73701
xu1.net_0_1                        2.31545e-12
xu1.net_0_2                        2.31548e-12
xu1.net_0_3                        2.31545e-12
xu1.net_1                              1.73701
vfix_b#branch                                0
vfix_a2#branch                               0
vin#branch                                   0
vdd#branch                        -1.39789e-11

 Reference value :  2.89275e-08
 Reference value :  6.70363e-08
 Reference value :  9.80263e-08
 Reference value :  1.27835e-07
 Reference value :  1.56625e-07
 Reference value :  1.87318e-07
 Reference value :  2.19616e-07
 Reference value :  2.50616e-07
 Reference value :  2.82715e-07
 Reference value :  3.13625e-07
No. of Data Rows : 68032

  Measurements for Transient Analysis

tphl                =  3.94916e-09 targ=  3.15735e-08 trig=  2.76244e-08
tplh                =  8.53610e-09 targ=  1.13409e-07 trig=  1.04873e-07
i_vdd_avg           =  -2.07109e-06 from=  1.00000e-08 to=  3.30000e-07
power_avg_uw        =  3.59751e+00


Total analysis time (seconds) = 3.40878

Total elapsed time (seconds) = 3.475 

Total DRAM available = 16384.000 MB.
DRAM currently available =  109.344 MB.
Maximum ngspice program size =   14.094 MB.
Current ngspice program size =   14.094 MB.

