
Note: No compatibility mode selected!


Circuit: GF180MCU library cell nand3_1 A1_to_ZN__A2=1,A3=1

Doing analysis at TEMP = 34.687514 and TNOM = 27.000000

Using SPARSE 1.3 as Direct Linear Solver

Initial Transient Solution
--------------------------

Node                                   Voltage
----                                   -------
vdd                                    1.64448
a1                                           0
a2                                     1.64448
a3                                     1.64448
xu1.net_1                          2.67533e-11
xu1.net_0                          5.35066e-11
zn                                     1.64448
vfix_a3#branch                               0
vfix_a2#branch                               0
vin#branch                                   0
vdd#branch                        -1.65731e-12

 Reference value :  7.59929e-08
 Reference value :  1.69833e-07
 Reference value :  2.71133e-07
No. of Data Rows : 68032

  Measurements for Transient Analysis

tphl                =  7.54746e-09 targ=  3.21126e-08 trig=  2.45652e-08
tplh                =  9.58887e-09 targ=  1.05284e-07 trig=  9.56956e-08
i_vdd_avg           =  -1.02954e-06 from=  1.00000e-08 to=  3.30003e-07
power_avg_uw        =  1.69305e+00


Total analysis time (seconds) = 1.08395

Total elapsed time (seconds) = 1.156 

Total DRAM available = 16384.000 MB.
DRAM currently available =  107.406 MB.
Maximum ngspice program size =   16.703 MB.
Current ngspice program size =   16.703 MB.

