
Note: No compatibility mode selected!


Circuit: GF180MCU library cell xor2_1 A1_to_Z__A2=0

Doing analysis at TEMP = 119.318080 and TNOM = 27.000000

Using SPARSE 1.3 as Direct Linear Solver

Initial Transient Solution
--------------------------

Node                                   Voltage
----                                   -------
vdd                                    1.88983
a1                                           0
a2                                           0
xu1.i                                  1.88983
z                                  6.96765e-08
xu1.net_0                          3.14383e-08
xu1.net_2                              1.88983
xu1.net_1                             0.715136
vfix_a2#branch                               0
vin#branch                                   0
vdd#branch                        -2.06245e-11

 Reference value :  6.32054e-08
 Reference value :  1.32758e-07
 Reference value :  2.04230e-07
 Reference value :  2.76748e-07
No. of Data Rows : 68034

  Measurements for Transient Analysis

tplh                =  1.54469e-08 targ=  4.11509e-08 trig=  2.57039e-08
tphl                =  5.30977e-09 targ=  1.04422e-07 trig=  9.91118e-08
i_vdd_avg           =  -1.59830e-06 from=  1.00000e-08 to=  3.30003e-07
power_avg_uw        =  3.02052e+00


Total analysis time (seconds) = 1.46225

Total elapsed time (seconds) = 1.516 

Total DRAM available = 16384.000 MB.
DRAM currently available =  110.641 MB.
Maximum ngspice program size =   13.469 MB.
Current ngspice program size =   13.266 MB.

