
Note: No compatibility mode selected!


Circuit: GF180MCU library cell aoi21_1 A1_to_ZN__A2=1,B=0

Doing analysis at TEMP = 70.586018 and TNOM = 27.000000

Using SPARSE 1.3 as Direct Linear Solver

Initial Transient Solution
--------------------------

Node                                   Voltage
----                                   -------
vdd                                    1.66303
a1                                           0
a2                                     1.66303
b                                            0
xu1.net_0                           4.7567e-10
zn                                     1.66303
xu1.net_1                              1.66303
vfix_b#branch                                0
vfix_a2#branch                               0
vin#branch                                   0
vdd#branch                        -3.45212e-12

 Reference value :  1.02062e-07
 Reference value :  1.97797e-07
 Reference value :  3.05376e-07
No. of Data Rows : 68032

  Measurements for Transient Analysis

tphl                =  6.25104e-09 targ=  3.37607e-08 trig=  2.75097e-08
tplh                =  1.56646e-08 targ=  1.20194e-07 trig=  1.04529e-07
i_vdd_avg           =  -9.20489e-07 from=  1.00000e-08 to=  3.30001e-07
power_avg_uw        =  1.53080e+00


Total analysis time (seconds) = 1.0246

Total elapsed time (seconds) = 1.089 

Total DRAM available = 16384.000 MB.
DRAM currently available =  125.969 MB.
Maximum ngspice program size =   13.859 MB.
Current ngspice program size =   13.859 MB.

