
Note: No compatibility mode selected!


Circuit: GF180MCU library cell nor2_1 A1_to_ZN__A2=0

Doing analysis at TEMP = 83.184222 and TNOM = 27.000000

Using SPARSE 1.3 as Direct Linear Solver

Initial Transient Solution
--------------------------

Node                                   Voltage
----                                   -------
vdd                                    1.66635
a1                                           0
a2                                           0
zn                                     1.66635
xu1.net_0                              1.66635
vfix_a2#branch                               0
vin#branch                                   0
vdd#branch                        -7.03151e-12

 Reference value :  1.04062e-07
 Reference value :  2.58232e-07
No. of Data Rows : 68032

  Measurements for Transient Analysis

tphl                =  3.54115e-09 targ=  3.04682e-08 trig=  2.69271e-08
tplh                =  9.35685e-09 targ=  1.12138e-07 trig=  1.02781e-07
i_vdd_avg           =  -9.37508e-07 from=  1.00000e-08 to=  3.30001e-07
power_avg_uw        =  1.56221e+00


Total analysis time (seconds) = 0.740065

Total elapsed time (seconds) = 0.816 

Total DRAM available = 16384.000 MB.
DRAM currently available =  167.062 MB.
Maximum ngspice program size =   18.172 MB.
Current ngspice program size =   18.172 MB.

