
Note: No compatibility mode selected!


Circuit: GF180MCU library cell nand3_1 A1_to_ZN__A2=1,A3=1

Doing analysis at TEMP = -19.079653 and TNOM = 27.000000

Using SPARSE 1.3 as Direct Linear Solver

Initial Transient Solution
--------------------------

Node                                   Voltage
----                                   -------
vdd                                    1.78332
a1                                           0
a2                                     1.78332
a3                                     1.78332
xu1.net_1                          8.55424e-11
xu1.net_0                          1.71085e-10
zn                                     1.78332
vfix_a3#branch                               0
vfix_a2#branch                               0
vin#branch                                   0
vdd#branch                        -1.81597e-12

 Reference value :  8.06361e-08
 Reference value :  1.89306e-07
 Reference value :  2.81545e-07
No. of Data Rows : 68034

  Measurements for Transient Analysis

tphl                =  2.87475e-09 targ=  2.78415e-08 trig=  2.49668e-08
tplh                =  3.39683e-09 targ=  1.00297e-07 trig=  9.69004e-08
i_vdd_avg           =  -1.25835e-06 from=  1.00000e-08 to=  3.30005e-07
power_avg_uw        =  2.24404e+00


Total analysis time (seconds) = 1.06995

Total elapsed time (seconds) = 1.139 

Total DRAM available = 16384.000 MB.
DRAM currently available =  108.312 MB.
Maximum ngspice program size =   16.891 MB.
Current ngspice program size =   16.891 MB.

