
Note: No compatibility mode selected!


Circuit: GF180MCU library cell nor2_4 A1_to_ZN__A2=0

Doing analysis at TEMP = -6.555925 and TNOM = 27.000000

Using SPARSE 1.3 as Direct Linear Solver

Initial Transient Solution
--------------------------

Node                                   Voltage
----                                   -------
vdd                                    1.81311
a1                                           0
a2                                           0
zn                                     1.81311
xu1.net_0_0                            1.81311
xu1.net_0_1                            1.81311
xu1.net_0_2                            1.81311
xu1.net_0_3                            1.81311
vfix_a2#branch                               0
vin#branch                                   0
vdd#branch                        -1.52526e-11

 Reference value :  3.30272e-08
 Reference value :  8.04222e-08
 Reference value :  1.29442e-07
 Reference value :  1.77532e-07
 Reference value :  2.25987e-07
 Reference value :  2.71642e-07
 Reference value :  3.20932e-07
No. of Data Rows : 68032

  Measurements for Transient Analysis

tphl                =  3.07945e-10 targ=  2.47203e-08 trig=  2.44123e-08
tplh                =  6.48914e-10 targ=  9.58859e-08 trig=  9.52370e-08
i_vdd_avg           =  -4.98750e-07 from=  1.00000e-08 to=  3.30002e-07
power_avg_uw        =  9.04288e-01


Total analysis time (seconds) = 2.34675

Total elapsed time (seconds) = 2.420 

Total DRAM available = 16384.000 MB.
DRAM currently available =  118.375 MB.
Maximum ngspice program size =   17.891 MB.
Current ngspice program size =   17.891 MB.

