
Note: No compatibility mode selected!


Circuit: GF180MCU library cell aoi21_4 A1_to_ZN__A2=1,B=0

Doing analysis at TEMP = 22.793564 and TNOM = 27.000000

Using SPARSE 1.3 as Direct Linear Solver

Initial Transient Solution
--------------------------

Node                                   Voltage
----                                   -------
vdd                                    1.96821
a1                                           0
a2                                     1.96821
b                                            0
xu1.net_0_0                        3.52289e-09
zn                                     1.96821
xu1.net_0_1                        3.52289e-09
xu1.net_0_2                        3.52289e-09
xu1.net_0_3                        3.52289e-09
xu1.net_1                              1.96821
vfix_b#branch                                0
vfix_a2#branch                               0
vin#branch                                   0
vdd#branch                        -2.38387e-11

 Reference value :  2.34764e-08
 Reference value :  5.46748e-08
 Reference value :  8.75648e-08
 Reference value :  1.19312e-07
 Reference value :  1.51972e-07
 Reference value :  1.83717e-07
 Reference value :  2.15050e-07
 Reference value :  2.45720e-07
 Reference value :  2.75002e-07
 Reference value :  3.07727e-07
 Reference value :  3.39007e-07
No. of Data Rows : 68030

  Measurements for Transient Analysis

tphl                =  1.45284e-09 targ=  3.05865e-08 trig=  2.91336e-08
tplh                =  3.89017e-09 targ=  1.13291e-07 trig=  1.09401e-07
i_vdd_avg           =  -2.35108e-06 from=  1.00000e-08 to=  3.30002e-07
power_avg_uw        =  4.62742e+00


Total analysis time (seconds) = 3.36772

Total elapsed time (seconds) = 3.434 

Total DRAM available = 16384.000 MB.
DRAM currently available =  131.703 MB.
Maximum ngspice program size =   16.312 MB.
Current ngspice program size =   16.312 MB.

