
Note: No compatibility mode selected!


Circuit: GF180MCU library cell inv_4 I_to_ZN

Doing analysis at TEMP = 65.188307 and TNOM = 27.000000

Using SPARSE 1.3 as Direct Linear Solver

Initial Transient Solution
--------------------------

Node                                   Voltage
----                                   -------
vdd                                    1.81305
i                                            0
zn                                     1.81305
vin#branch                                   0
vdd#branch                        -6.04999e-11

 Reference value :  7.79450e-08
 Reference value :  1.78788e-07
 Reference value :  2.75608e-07
No. of Data Rows : 68034

  Measurements for Transient Analysis

tphl                =  6.34560e-10 targ=  2.50883e-08 trig=  2.44538e-08
tplh                =  1.22082e-09 targ=  9.65821e-08 trig=  9.53613e-08
i_vdd_avg           =  -1.99948e-06 from=  1.00000e-08 to=  3.30003e-07
power_avg_uw        =  3.62516e+00


Total analysis time (seconds) = 1.0791

Total elapsed time (seconds) = 1.143 

Total DRAM available = 16384.000 MB.
DRAM currently available =  106.781 MB.
Maximum ngspice program size =   16.562 MB.
Current ngspice program size =   16.562 MB.

