
Note: No compatibility mode selected!


Circuit: GF180MCU library cell oai21_1 A1_to_ZN__A2=0,B=1

Doing analysis at TEMP = 82.475934 and TNOM = 27.000000

Using SPARSE 1.3 as Direct Linear Solver

Initial Transient Solution
--------------------------

Node                                   Voltage
----                                   -------
vdd                                    1.73045
a1                                           0
a2                                           0
b                                      1.73045
zn                                     1.73045
xu1.net_0                          2.43694e-08
xu1.net_1                              1.73045
vfix_b#branch                                0
vfix_a2#branch                               0
vin#branch                                   0
vdd#branch                        -7.00352e-12

 Reference value :  1.00433e-07
 Reference value :  2.16373e-07
 Reference value :  3.09789e-07
No. of Data Rows : 68032

  Measurements for Transient Analysis

tphl                =  5.06537e-09 targ=  3.18708e-08 trig=  2.68054e-08
tplh                =  1.20475e-08 targ=  1.14464e-07 trig=  1.02416e-07
i_vdd_avg           =  -1.43344e-06 from=  1.00000e-08 to=  3.30004e-07
power_avg_uw        =  2.48051e+00


Total analysis time (seconds) = 1.05052

Total elapsed time (seconds) = 1.115 

Total DRAM available = 16384.000 MB.
DRAM currently available =  142.516 MB.
Maximum ngspice program size =   14.125 MB.
Current ngspice program size =   14.125 MB.

