
Note: No compatibility mode selected!


Circuit: GF180MCU library cell xor2_4 A1_to_Z__A2=0

Doing analysis at TEMP = 99.652030 and TNOM = 27.000000

Using SPARSE 1.3 as Direct Linear Solver

Initial Transient Solution
--------------------------

Node                                   Voltage
----                                   -------
vdd                                    1.83288
a1                                           0
a2                                           0
xu1.net_2                            0.0536084
xu1.i                                  1.83288
xu1.net_0                          7.92166e-07
xu1.z_neg                              1.83287
z                                  1.72102e-08
xu1.net_1                              1.83287
vfix_a2#branch                               0
vin#branch                                   0
vdd#branch                        -2.11952e-10

 Reference value :  2.78375e-08
 Reference value :  7.16022e-08
 Reference value :  1.14757e-07
 Reference value :  1.57892e-07
 Reference value :  2.00832e-07
 Reference value :  2.42907e-07
 Reference value :  2.86307e-07
 Reference value :  3.27932e-07
No. of Data Rows : 68032

  Measurements for Transient Analysis

tplh                =  2.02247e-09 targ=  3.09248e-08 trig=  2.89023e-08
tphl                =  3.60707e-09 targ=  1.12314e-07 trig=  1.08707e-07
i_vdd_avg           =  -2.64136e-06 from=  1.00000e-08 to=  3.30002e-07
power_avg_uw        =  4.84129e+00


Total analysis time (seconds) = 2.53275

Total elapsed time (seconds) = 2.621 

Total DRAM available = 16384.000 MB.
DRAM currently available =  105.812 MB.
Maximum ngspice program size =   19.016 MB.
Current ngspice program size =   19.016 MB.

