
Note: No compatibility mode selected!


Circuit: GF180MCU library cell nand2_4 A1_to_ZN__A2=1

Doing analysis at TEMP = -31.305639 and TNOM = 27.000000

Using SPARSE 1.3 as Direct Linear Solver

Initial Transient Solution
--------------------------

Node                                   Voltage
----                                   -------
vdd                                    1.94858
a1                                           0
a2                                     1.94858
xu1.net_0_0                        1.26904e-14
zn                                     1.94858
xu1.net_0_1                        1.27248e-14
xu1.net_0_2                        1.26904e-14
xu1.net_0_3                        1.27248e-14
vfix_a2#branch                               0
vin#branch                                   0
vdd#branch                        -7.83433e-12

 Reference value :  4.24795e-08
 Reference value :  9.18345e-08
 Reference value :  1.39897e-07
 Reference value :  1.89633e-07
 Reference value :  2.38470e-07
 Reference value :  2.87767e-07
 Reference value :  3.38232e-07
No. of Data Rows : 68030

  Measurements for Transient Analysis

tphl                =  3.35696e-09 targ=  3.25580e-08 trig=  2.92010e-08
tplh                =  4.94877e-09 targ=  1.14552e-07 trig=  1.09603e-07
i_vdd_avg           =  -1.68939e-06 from=  1.00000e-08 to=  3.30002e-07
power_avg_uw        =  3.29191e+00


Total analysis time (seconds) = 2.15596

Total elapsed time (seconds) = 2.214 

Total DRAM available = 16384.000 MB.
DRAM currently available =   94.203 MB.
Maximum ngspice program size =   15.375 MB.
Current ngspice program size =   15.375 MB.

