
Note: No compatibility mode selected!


Circuit: GF180MCU library cell oai21_1 A1_to_ZN__A2=0,B=1

Doing analysis at TEMP = -11.675044 and TNOM = 27.000000

Using SPARSE 1.3 as Direct Linear Solver

Initial Transient Solution
--------------------------

Node                                   Voltage
----                                   -------
vdd                                    1.93339
a1                                           0
a2                                           0
b                                      1.93339
zn                                     1.93339
xu1.net_0                          9.96523e-12
xu1.net_1                              1.93339
vfix_b#branch                                0
vfix_a2#branch                               0
vin#branch                                   0
vdd#branch                        -3.88894e-12

 Reference value :  9.82147e-08
 Reference value :  2.20586e-07
 Reference value :  3.16975e-07
No. of Data Rows : 68034

  Measurements for Transient Analysis

tphl                =  2.95247e-09 targ=  2.71093e-08 trig=  2.41568e-08
tplh                =  7.78576e-09 targ=  1.02256e-07 trig=  9.44704e-08
i_vdd_avg           =  -1.68589e-06 from=  1.00000e-08 to=  3.30005e-07
power_avg_uw        =  3.25949e+00


Total analysis time (seconds) = 0.957261

Total elapsed time (seconds) = 1.018 

Total DRAM available = 16384.000 MB.
DRAM currently available =  105.797 MB.
Maximum ngspice program size =   14.156 MB.
Current ngspice program size =   14.156 MB.

