
Note: No compatibility mode selected!


Circuit: GF180MCU library cell aoi21_1 A1_to_ZN__A2=1,B=0

Doing analysis at TEMP = 27.416566 and TNOM = 27.000000

Using SPARSE 1.3 as Direct Linear Solver

Initial Transient Solution
--------------------------

Node                                   Voltage
----                                   -------
vdd                                     1.9544
a1                                           0
a2                                      1.9544
b                                            0
xu1.net_0                          1.19166e-11
zn                                      1.9544
xu1.net_1                               1.9544
vfix_b#branch                                0
vfix_a2#branch                               0
vin#branch                                   0
vdd#branch                        -3.93283e-12

 Reference value :  1.02359e-07
 Reference value :  2.12439e-07
 Reference value :  3.09396e-07
No. of Data Rows : 68030

  Measurements for Transient Analysis

tphl                =  9.62431e-09 targ=  3.93003e-08 trig=  2.96760e-08
tplh                =  2.26149e-08 targ=  1.33643e-07 trig=  1.11028e-07
i_vdd_avg           =  -2.48270e-06 from=  1.00000e-08 to=  3.30001e-07
power_avg_uw        =  4.85218e+00


Total analysis time (seconds) = 1.03075

Total elapsed time (seconds) = 1.091 

Total DRAM available = 16384.000 MB.
DRAM currently available =  116.797 MB.
Maximum ngspice program size =   13.000 MB.
Current ngspice program size =   13.000 MB.

