
Note: No compatibility mode selected!


Circuit: GF180MCU library cell aoi21_4 A1_to_ZN__A2=1,B=0

Doing analysis at TEMP = 47.350165 and TNOM = 27.000000

Using SPARSE 1.3 as Direct Linear Solver

Initial Transient Solution
--------------------------

Node                                   Voltage
----                                   -------
vdd                                    1.84992
a1                                           0
a2                                     1.84992
b                                            0
xu1.net_0_0                        2.04294e-08
zn                                     1.84992
xu1.net_0_1                        2.04294e-08
xu1.net_0_2                        2.04294e-08
xu1.net_0_3                        2.04294e-08
xu1.net_1                              1.84992
vfix_b#branch                                0
vfix_a2#branch                               0
vin#branch                                   0
vdd#branch                        -5.45452e-11

 Reference value :  2.11114e-08
 Reference value :  5.20172e-08
 Reference value :  8.02622e-08
 Reference value :  1.11717e-07
 Reference value :  1.42712e-07
 Reference value :  1.74302e-07
 Reference value :  2.05057e-07
 Reference value :  2.34937e-07
 Reference value :  2.62707e-07
 Reference value :  2.91437e-07
 Reference value :  3.23672e-07
No. of Data Rows : 68032

  Measurements for Transient Analysis

tphl                =  8.63723e-10 targ=  2.80636e-08 trig=  2.71998e-08
tplh                =  2.36052e-09 targ=  1.05960e-07 trig=  1.03600e-07
i_vdd_avg           =  -1.12119e-06 from=  1.00000e-08 to=  3.30002e-07
power_avg_uw        =  2.07412e+00


Total analysis time (seconds) = 3.67041

Total elapsed time (seconds) = 3.752 

Total DRAM available = 16384.000 MB.
DRAM currently available =  130.266 MB.
Maximum ngspice program size =   17.609 MB.
Current ngspice program size =   17.609 MB.

