
Note: No compatibility mode selected!


Circuit: GF180MCU library cell mux2_4 I0_to_Z__I1=0,S=0

Doing analysis at TEMP = 91.323592 and TNOM = 27.000000

Using SPARSE 1.3 as Direct Linear Solver

Initial Transient Solution
--------------------------

Node                                   Voltage
----                                   -------
vdd                                    1.97625
i0                                           0
i1                                           0
s                                            0
xu1.int04                              1.97625
z                                  1.72508e-08
xu1.net_1                            0.0234273
xu1.net_3                               1.3454
xu1.sel1_n                             1.97625
xu1.net_0                              1.97625
xu1.net_2                              1.97625
vfix_s#branch                                0
vfix_i1#branch                               0
vin#branch                                   0
vdd#branch                        -1.74285e-11

 Reference value :  3.25546e-08
 Reference value :  7.02846e-08
 Reference value :  1.10262e-07
 Reference value :  1.51482e-07
 Reference value :  1.88948e-07
 Reference value :  2.26895e-07
 Reference value :  2.65970e-07
 Reference value :  3.05157e-07
No. of Data Rows : 68030

  Measurements for Transient Analysis

tplh                =  4.28105e-09 targ=  3.23196e-08 trig=  2.80385e-08
tphl                =  5.01270e-09 targ=  1.11128e-07 trig=  1.06116e-07
i_vdd_avg           =  -2.40199e-06 from=  1.00000e-08 to=  3.30002e-07
power_avg_uw        =  4.74693e+00


Total analysis time (seconds) = 2.75351

Total elapsed time (seconds) = 2.814 

Total DRAM available = 16384.000 MB.
DRAM currently available =   68.219 MB.
Maximum ngspice program size =   14.938 MB.
Current ngspice program size =   14.938 MB.

