
Note: No compatibility mode selected!


Circuit: GF180MCU library cell nand2_1 A1_to_ZN__A2=1

Doing analysis at TEMP = -36.503135 and TNOM = 27.000000

Using SPARSE 1.3 as Direct Linear Solver

Initial Transient Solution
--------------------------

Node                                   Voltage
----                                   -------
vdd                                    1.80503
a1                                           0
a2                                     1.80503
xu1.net_0                          2.42753e-13
zn                                     1.80503
vfix_a2#branch                               0
vin#branch                                   0
vdd#branch                        -1.81508e-12

 Reference value :  1.16285e-07
 Reference value :  2.78550e-07
No. of Data Rows : 68032

  Measurements for Transient Analysis

tphl                =  2.16568e-09 targ=  2.88301e-08 trig=  2.66644e-08
tplh                =  3.06955e-09 targ=  1.05063e-07 trig=  1.01993e-07
i_vdd_avg           =  -4.84827e-07 from=  1.00000e-08 to=  3.30000e-07
power_avg_uw        =  8.75125e-01


Total analysis time (seconds) = 0.678085

Total elapsed time (seconds) = 0.765 

Total DRAM available = 16384.000 MB.
DRAM currently available =  124.516 MB.
Maximum ngspice program size =   17.406 MB.
Current ngspice program size =   17.406 MB.

