
Note: No compatibility mode selected!


Circuit: GF180MCU library cell oai21_4 A1_to_ZN__A2=0,B=1

Doing analysis at TEMP = 35.165847 and TNOM = 27.000000

Using SPARSE 1.3 as Direct Linear Solver

Initial Transient Solution
--------------------------

Node                                   Voltage
----                                   -------
vdd                                    1.70525
a1                                           0
a2                                           0
b                                      1.70525
zn                                     1.70525
xu1.net_0                          5.39779e-11
xu1.net_1_0                            1.70525
xu1.net_1_1                            1.70525
xu1.net_1_2                            1.70525
xu1.net_1_3                            1.70525
vfix_b#branch                                0
vfix_a2#branch                               0
vin#branch                                   0
vdd#branch                        -1.37463e-11

 Reference value :  2.70825e-08
 Reference value :  6.02670e-08
 Reference value :  9.11470e-08
 Reference value :  1.21631e-07
 Reference value :  1.50156e-07
 Reference value :  1.81656e-07
 Reference value :  2.13952e-07
 Reference value :  2.45437e-07
 Reference value :  2.75496e-07
 Reference value :  3.07476e-07
 Reference value :  3.39766e-07
No. of Data Rows : 68032

  Measurements for Transient Analysis

tphl                =  2.53581e-09 targ=  2.82081e-08 trig=  2.56722e-08
tplh                =  6.70285e-09 targ=  1.05720e-07 trig=  9.90167e-08
i_vdd_avg           =  -1.53954e-06 from=  1.00000e-08 to=  3.30001e-07
power_avg_uw        =  2.62531e+00


Total analysis time (seconds) = 3.40863

Total elapsed time (seconds) = 3.468 

Total DRAM available = 16384.000 MB.
DRAM currently available =   99.281 MB.
Maximum ngspice program size =   13.953 MB.
Current ngspice program size =   13.953 MB.

