
Note: No compatibility mode selected!


Circuit: GF180MCU library cell oai21_1 A1_to_ZN__A2=0,B=1

Doing analysis at TEMP = 119.705690 and TNOM = 27.000000

Using SPARSE 1.3 as Direct Linear Solver

Initial Transient Solution
--------------------------

Node                                   Voltage
----                                   -------
vdd                                    1.63022
a1                                           0
a2                                           0
b                                      1.63022
zn                                     1.63021
xu1.net_0                          1.96105e-07
xu1.net_1                              1.63022
vfix_b#branch                                0
vfix_a2#branch                               0
vin#branch                                   0
vdd#branch                        -2.73994e-11

 Reference value :  7.31144e-08
 Reference value :  1.72091e-07
 Reference value :  2.76806e-07
No. of Data Rows : 68030

  Measurements for Transient Analysis

tphl                =  2.97293e-09 targ=  3.18964e-08 trig=  2.89234e-08
tplh                =  5.81032e-09 targ=  1.14581e-07 trig=  1.08770e-07
i_vdd_avg           =  -3.64550e-07 from=  1.00000e-08 to=  3.30001e-07
power_avg_uw        =  5.94295e-01


Total analysis time (seconds) = 1.08907

Total elapsed time (seconds) = 1.163 

Total DRAM available = 16384.000 MB.
DRAM currently available =  126.906 MB.
Maximum ngspice program size =   17.953 MB.
Current ngspice program size =   17.953 MB.

