
Note: No compatibility mode selected!


Circuit: GF180MCU library cell nor2_1 A1_to_ZN__A2=0

Doing analysis at TEMP = 20.495441 and TNOM = 27.000000

Using SPARSE 1.3 as Direct Linear Solver

Initial Transient Solution
--------------------------

Node                                   Voltage
----                                   -------
vdd                                    1.64908
a1                                           0
a2                                           0
zn                                     1.64908
xu1.net_0                              1.64908
vfix_a2#branch                               0
vin#branch                                   0
vdd#branch                        -4.71083e-12

 Reference value :  1.15875e-07
 Reference value :  2.56351e-07
No. of Data Rows : 68034

  Measurements for Transient Analysis

tphl                =  3.39834e-09 targ=  2.84777e-08 trig=  2.50793e-08
tplh                =  1.10081e-08 targ=  1.08246e-07 trig=  9.72380e-08
i_vdd_avg           =  -2.08947e-06 from=  1.00000e-08 to=  3.30005e-07
power_avg_uw        =  3.44571e+00


Total analysis time (seconds) = 0.772777

Total elapsed time (seconds) = 0.858 

Total DRAM available = 16384.000 MB.
DRAM currently available =  167.062 MB.
Maximum ngspice program size =   16.875 MB.
Current ngspice program size =   16.875 MB.

