
Note: No compatibility mode selected!


Circuit: GF180MCU library cell aoi21_1 A1_to_ZN__A2=1,B=0

Doing analysis at TEMP = -26.664007 and TNOM = 27.000000

Using SPARSE 1.3 as Direct Linear Solver

Initial Transient Solution
--------------------------

Node                                   Voltage
----                                   -------
vdd                                    1.68912
a1                                           0
a2                                     1.68912
b                                            0
xu1.net_0                          9.07512e-13
zn                                     1.68912
xu1.net_1                              1.68912
vfix_b#branch                                0
vfix_a2#branch                               0
vin#branch                                   0
vdd#branch                        -3.39867e-12

 Reference value :  6.94496e-08
 Reference value :  1.74167e-07
 Reference value :  2.78012e-07
No. of Data Rows : 68030

  Measurements for Transient Analysis

tphl                =  6.07588e-09 targ=  3.57244e-08 trig=  2.96485e-08
tplh                =  1.30753e-08 targ=  1.24021e-07 trig=  1.10946e-07
i_vdd_avg           =  -1.36589e-06 from=  1.00000e-08 to=  3.30002e-07
power_avg_uw        =  2.30715e+00


Total analysis time (seconds) = 1.069

Total elapsed time (seconds) = 1.155 

Total DRAM available = 16384.000 MB.
DRAM currently available =  113.406 MB.
Maximum ngspice program size =   17.672 MB.
Current ngspice program size =   17.672 MB.

