
Note: No compatibility mode selected!


Circuit: GF180MCU library cell inv_1 I_to_ZN

Doing analysis at TEMP = 34.057443 and TNOM = 27.000000

Using SPARSE 1.3 as Direct Linear Solver

Initial Transient Solution
--------------------------

Node                                   Voltage
----                                   -------
vdd                                    1.67914
i                                            0
zn                                     1.67914
vin#branch                                   0
vdd#branch                        -3.47472e-12

 Reference value :  2.07454e-07
No. of Data Rows : 68030

  Measurements for Transient Analysis

tphl                =  1.72743e-10 targ=  2.62462e-08 trig=  2.60735e-08
tplh                =  8.70998e-10 targ=  1.01091e-07 trig=  1.00220e-07
i_vdd_avg           =  -7.16169e-08 from=  1.00000e-08 to=  3.30001e-07
power_avg_uw        =  1.20255e-01


Total analysis time (seconds) = 0.412463

Total elapsed time (seconds) = 0.494 

Total DRAM available = 16384.000 MB.
DRAM currently available =  145.141 MB.
Maximum ngspice program size =   17.766 MB.
Current ngspice program size =   17.766 MB.

