
Note: No compatibility mode selected!


Circuit: GF180MCU library cell inv_1 I_to_ZN

Doing analysis at TEMP = 23.728111 and TNOM = 27.000000

Using SPARSE 1.3 as Direct Linear Solver

Initial Transient Solution
--------------------------

Node                                   Voltage
----                                   -------
vdd                                    1.76858
i                                            0
zn                                     1.76858
vin#branch                                   0
vdd#branch                        -2.67464e-12

 Reference value :  2.86201e-07
No. of Data Rows : 68030

  Measurements for Transient Analysis

tphl                =  2.36333e-09 targ=  2.80816e-08 trig=  2.57183e-08
tplh                =  4.63427e-09 targ=  1.03789e-07 trig=  9.91548e-08
i_vdd_avg           =  -1.85029e-06 from=  1.00000e-08 to=  3.30001e-07
power_avg_uw        =  3.27239e+00


Total analysis time (seconds) = 0.222445

Total elapsed time (seconds) = 0.397 

Total DRAM available = 16384.000 MB.
DRAM currently available =  145.141 MB.
Maximum ngspice program size =   17.312 MB.
Current ngspice program size =   17.312 MB.

