
Note: No compatibility mode selected!


Circuit: GF180MCU library cell aoi21_1 A1_to_ZN__A2=1,B=0

Doing analysis at TEMP = -32.457667 and TNOM = 27.000000

Using SPARSE 1.3 as Direct Linear Solver

Initial Transient Solution
--------------------------

Node                                   Voltage
----                                   -------
vdd                                    1.67297
a1                                           0
a2                                     1.67297
b                                            0
xu1.net_0                          2.01692e-11
zn                                     1.67297
xu1.net_1                              1.67297
vfix_b#branch                                0
vfix_a2#branch                               0
vin#branch                                   0
vdd#branch                        -3.37802e-12

 Reference value :  6.73877e-08
 Reference value :  1.78168e-07
 Reference value :  2.83233e-07
No. of Data Rows : 68032

  Measurements for Transient Analysis

tphl                =  3.75452e-09 targ=  3.16396e-08 trig=  2.78851e-08
tplh                =  7.84197e-09 targ=  1.13497e-07 trig=  1.05655e-07
i_vdd_avg           =  -1.32194e-06 from=  1.00000e-08 to=  3.30003e-07
power_avg_uw        =  2.21157e+00


Total analysis time (seconds) = 1.03401

Total elapsed time (seconds) = 1.143 

Total DRAM available = 16384.000 MB.
DRAM currently available =  148.812 MB.
Maximum ngspice program size =   18.422 MB.
Current ngspice program size =   18.422 MB.

