
Note: No compatibility mode selected!


Circuit: GF180MCU library cell aoi21_4 A1_to_ZN__A2=1,B=0

Doing analysis at TEMP = 63.033600 and TNOM = 27.000000

Using SPARSE 1.3 as Direct Linear Solver

Initial Transient Solution
--------------------------

Node                                   Voltage
----                                   -------
vdd                                    1.75336
a1                                           0
a2                                     1.75336
b                                            0
xu1.net_0_0                          2.602e-10
zn                                     1.75336
xu1.net_0_1                          2.602e-10
xu1.net_0_2                          2.602e-10
xu1.net_0_3                          2.602e-10
xu1.net_1                              1.75336
vfix_b#branch                                0
vfix_a2#branch                               0
vin#branch                                   0
vdd#branch                        -1.43659e-11

 Reference value :  3.04503e-08
 Reference value :  6.82103e-08
 Reference value :  9.76283e-08
 Reference value :  1.25833e-07
 Reference value :  1.55128e-07
 Reference value :  1.88515e-07
 Reference value :  2.19480e-07
 Reference value :  2.50115e-07
 Reference value :  2.82793e-07
 Reference value :  3.14568e-07
No. of Data Rows : 68034

  Measurements for Transient Analysis

tphl                =  2.68633e-09 targ=  2.85002e-08 trig=  2.58139e-08
tplh                =  6.33796e-09 targ=  1.05780e-07 trig=  9.94417e-08
i_vdd_avg           =  -1.73765e-06 from=  1.00000e-08 to=  3.30003e-07
power_avg_uw        =  3.04673e+00


Total analysis time (seconds) = 3.36065

Total elapsed time (seconds) = 3.425 

Total DRAM available = 16384.000 MB.
DRAM currently available =   88.109 MB.
Maximum ngspice program size =   14.203 MB.
Current ngspice program size =   14.203 MB.

