
Note: No compatibility mode selected!


Circuit: GF180MCU library cell xor2_1 A1_to_Z__A2=0

Doing analysis at TEMP = 103.050880 and TNOM = 27.000000

Using SPARSE 1.3 as Direct Linear Solver

Initial Transient Solution
--------------------------

Node                                   Voltage
----                                   -------
vdd                                    1.97698
a1                                           0
a2                                           0
xu1.i                                  1.97698
z                                  6.54444e-08
xu1.net_0                          2.57753e-08
xu1.net_2                              1.97698
xu1.net_1                             0.765693
vfix_a2#branch                               0
vin#branch                                   0
vdd#branch                         -1.5971e-11

 Reference value :  5.53013e-08
 Reference value :  1.23340e-07
 Reference value :  1.99361e-07
 Reference value :  2.70401e-07
No. of Data Rows : 68032

  Measurements for Transient Analysis

tplh                =  2.19903e-09 targ=  3.19334e-08 trig=  2.97344e-08
tphl                =  3.80041e-09 targ=  1.15004e-07 trig=  1.11203e-07
i_vdd_avg           =  -2.41184e-07 from=  1.00000e-08 to=  3.30000e-07
power_avg_uw        =  4.76818e-01


Total analysis time (seconds) = 1.49383

Total elapsed time (seconds) = 1.550 

Total DRAM available = 16384.000 MB.
DRAM currently available =  113.656 MB.
Maximum ngspice program size =   13.906 MB.
Current ngspice program size =   13.906 MB.

