
Note: No compatibility mode selected!


Circuit: GF180MCU library cell nand2_1 A1_to_ZN__A2=1

Doing analysis at TEMP = 114.603360 and TNOM = 27.000000

Using SPARSE 1.3 as Direct Linear Solver

Initial Transient Solution
--------------------------

Node                                   Voltage
----                                   -------
vdd                                    1.97662
a1                                           0
a2                                     1.97662
xu1.net_0                          7.88608e-07
zn                                     1.97662
vfix_a2#branch                               0
vin#branch                                   0
vdd#branch                         -1.6531e-10

 Reference value :  1.13788e-07
 Reference value :  2.68738e-07
No. of Data Rows : 68034

  Measurements for Transient Analysis

tphl                =  1.61596e-10 targ=  2.57130e-08 trig=  2.55514e-08
tplh                =  5.97752e-10 targ=  9.92520e-08 trig=  9.86543e-08
i_vdd_avg           =  -1.13626e-07 from=  1.00000e-08 to=  3.30003e-07
power_avg_uw        =  2.24595e-01


Total analysis time (seconds) = 0.700029

Total elapsed time (seconds) = 0.773 

Total DRAM available = 16384.000 MB.
DRAM currently available =  108.656 MB.
Maximum ngspice program size =   15.531 MB.
Current ngspice program size =   15.531 MB.

