
Note: No compatibility mode selected!


Circuit: GF180MCU library cell nor2_1 A1_to_ZN__A2=0

Doing analysis at TEMP = 5.821512 and TNOM = 27.000000

Using SPARSE 1.3 as Direct Linear Solver

Initial Transient Solution
--------------------------

Node                                   Voltage
----                                   -------
vdd                                    1.84269
a1                                           0
a2                                           0
zn                                     1.84269
xu1.net_0                              1.84269
vfix_a2#branch                               0
vin#branch                                   0
vdd#branch                        -3.70585e-12

 Reference value :  1.44622e-07
 Reference value :  3.03827e-07
No. of Data Rows : 68030

  Measurements for Transient Analysis

tphl                =  4.30798e-09 targ=  3.19965e-08 trig=  2.76886e-08
tplh                =  1.06361e-08 targ=  1.15702e-07 trig=  1.05066e-07
i_vdd_avg           =  -9.04048e-07 from=  1.00000e-08 to=  3.30002e-07
power_avg_uw        =  1.66588e+00


Total analysis time (seconds) = 0.593935

Total elapsed time (seconds) = 0.649 

Total DRAM available = 16384.000 MB.
DRAM currently available =   93.203 MB.
Maximum ngspice program size =   14.891 MB.
Current ngspice program size =   14.891 MB.

