
Note: No compatibility mode selected!


Circuit: GF180MCU library cell xor2_1 A1_to_Z__A2=0

Doing analysis at TEMP = 22.634894 and TNOM = 27.000000

Using SPARSE 1.3 as Direct Linear Solver

Initial Transient Solution
--------------------------

Node                                   Voltage
----                                   -------
vdd                                    1.62408
a1                                           0
a2                                           0
xu1.i                                  1.62408
z                                   5.3315e-08
xu1.net_0                          2.42054e-10
xu1.net_2                              1.62408
xu1.net_1                             0.809283
vfix_a2#branch                               0
vin#branch                                   0
vdd#branch                        -9.00079e-12

 Reference value :  5.20182e-08
 Reference value :  1.19864e-07
 Reference value :  1.90683e-07
 Reference value :  2.62478e-07
 Reference value :  3.37204e-07
No. of Data Rows : 68032

  Measurements for Transient Analysis

tplh                =  3.03678e-08 targ=  5.75357e-08 trig=  2.71678e-08
tphl                =  8.63082e-09 targ=  1.12134e-07 trig=  1.03504e-07
i_vdd_avg           =  -1.81908e-06 from=  1.00000e-08 to=  3.30004e-07
power_avg_uw        =  2.95433e+00


Total analysis time (seconds) = 1.5244

Total elapsed time (seconds) = 1.604 

Total DRAM available = 16384.000 MB.
DRAM currently available =  120.859 MB.
Maximum ngspice program size =   18.172 MB.
Current ngspice program size =   18.172 MB.

