
Note: No compatibility mode selected!


Circuit: GF180MCU library cell oai21_4 A1_to_ZN__A2=0,B=1

Doing analysis at TEMP = 75.500102 and TNOM = 27.000000

Using SPARSE 1.3 as Direct Linear Solver

Initial Transient Solution
--------------------------

Node                                   Voltage
----                                   -------
vdd                                    1.75962
a1                                           0
a2                                           0
b                                      1.75962
zn                                     1.75961
xu1.net_0                          1.56762e-08
xu1.net_1_0                            1.75962
xu1.net_1_1                            1.75962
xu1.net_1_2                            1.75962
xu1.net_1_3                            1.75962
vfix_b#branch                                0
vfix_a2#branch                               0
vin#branch                                   0
vdd#branch                        -2.35771e-11

 Reference value :  2.90277e-08
 Reference value :  6.04127e-08
 Reference value :  9.11677e-08
 Reference value :  1.18333e-07
 Reference value :  1.49823e-07
 Reference value :  1.81103e-07
 Reference value :  2.11303e-07
 Reference value :  2.41528e-07
 Reference value :  2.71648e-07
 Reference value :  3.04303e-07
 Reference value :  3.36403e-07
No. of Data Rows : 68032

  Measurements for Transient Analysis

tphl                =  1.51488e-09 targ=  2.60400e-08 trig=  2.45251e-08
tplh                =  4.19430e-09 targ=  9.97695e-08 trig=  9.55752e-08
i_vdd_avg           =  -2.00101e-06 from=  1.00000e-08 to=  3.30003e-07
power_avg_uw        =  3.52101e+00


Total analysis time (seconds) = 3.50481

Total elapsed time (seconds) = 3.571 

Total DRAM available = 16384.000 MB.
DRAM currently available =  134.344 MB.
Maximum ngspice program size =   15.094 MB.
Current ngspice program size =   15.094 MB.

