
Note: No compatibility mode selected!


Circuit: GF180MCU library cell nand2_1 A1_to_ZN__A2=1

Doing analysis at TEMP = -11.881138 and TNOM = 27.000000

Using SPARSE 1.3 as Direct Linear Solver

Initial Transient Solution
--------------------------

Node                                   Voltage
----                                   -------
vdd                                    1.93361
a1                                           0
a2                                     1.93361
xu1.net_0                          1.73707e-10
zn                                     1.93361
vfix_a2#branch                               0
vin#branch                                   0
vdd#branch                        -1.99295e-12

 Reference value :  1.14949e-07
 Reference value :  2.71031e-07
No. of Data Rows : 68034

  Measurements for Transient Analysis

tphl                =  4.18322e-09 targ=  3.31122e-08 trig=  2.89290e-08
tplh                =  5.91284e-09 targ=  1.14700e-07 trig=  1.08787e-07
i_vdd_avg           =  -2.07676e-06 from=  1.00000e-08 to=  3.30004e-07
power_avg_uw        =  4.01566e+00


Total analysis time (seconds) = 0.711252

Total elapsed time (seconds) = 0.781 

Total DRAM available = 16384.000 MB.
DRAM currently available =  120.531 MB.
Maximum ngspice program size =   17.281 MB.
Current ngspice program size =   17.281 MB.

