
Note: No compatibility mode selected!


Circuit: GF180MCU library cell mux2_4 I0_to_Z__I1=0,S=0

Doing analysis at TEMP = 51.941704 and TNOM = 27.000000

Using SPARSE 1.3 as Direct Linear Solver

Initial Transient Solution
--------------------------

Node                                   Voltage
----                                   -------
vdd                                    1.90688
i0                                           0
i1                                           0
s                                            0
xu1.int04                              1.90688
z                                  1.14048e-08
xu1.net_1                            0.0260963
xu1.net_3                              1.33854
xu1.sel1_n                             1.90688
xu1.net_0                              1.90688
xu1.net_2                              1.90688
vfix_s#branch                                0
vfix_i1#branch                               0
vin#branch                                   0
vdd#branch                        -1.70888e-11

 Reference value :  3.49775e-08
 Reference value :  7.49358e-08
 Reference value :  1.16346e-07
 Reference value :  1.57124e-07
 Reference value :  1.97091e-07
 Reference value :  2.35506e-07
 Reference value :  2.77314e-07
 Reference value :  3.17124e-07
No. of Data Rows : 68034

  Measurements for Transient Analysis

tplh                =  3.06527e-09 targ=  3.26744e-08 trig=  2.96091e-08
tphl                =  4.20592e-09 targ=  1.15033e-07 trig=  1.10827e-07
i_vdd_avg           =  -2.55174e-06 from=  1.00000e-08 to=  3.30004e-07
power_avg_uw        =  4.86587e+00


Total analysis time (seconds) = 2.64318

Total elapsed time (seconds) = 2.712 

Total DRAM available = 16384.000 MB.
DRAM currently available =   95.703 MB.
Maximum ngspice program size =   14.969 MB.
Current ngspice program size =   14.969 MB.

