
Note: No compatibility mode selected!


Circuit: GF180MCU library cell aoi21_4 A1_to_ZN__A2=1,B=0

Doing analysis at TEMP = 90.186162 and TNOM = 27.000000

Using SPARSE 1.3 as Direct Linear Solver

Initial Transient Solution
--------------------------

Node                                   Voltage
----                                   -------
vdd                                     1.6821
a1                                           0
a2                                      1.6821
b                                            0
xu1.net_0_0                        1.95742e-08
zn                                      1.6821
xu1.net_0_1                        1.95742e-08
xu1.net_0_2                        1.95742e-08
xu1.net_0_3                        1.95742e-08
xu1.net_1                               1.6821
vfix_b#branch                                0
vfix_a2#branch                               0
vin#branch                                   0
vdd#branch                        -3.65978e-11

 Reference value :  2.09364e-08
 Reference value :  5.34817e-08
 Reference value :  8.53567e-08
 Reference value :  1.16916e-07
 Reference value :  1.46976e-07
 Reference value :  1.78421e-07
 Reference value :  2.10362e-07
 Reference value :  2.41232e-07
 Reference value :  2.71951e-07
 Reference value :  3.01716e-07
 Reference value :  3.32676e-07
No. of Data Rows : 68032

  Measurements for Transient Analysis

tphl                =  5.59665e-10 targ=  2.49193e-08 trig=  2.43596e-08
tplh                =  1.26559e-09 targ=  9.63444e-08 trig=  9.50788e-08
i_vdd_avg           =  -5.16958e-07 from=  1.00000e-08 to=  3.30001e-07
power_avg_uw        =  8.69578e-01


Total analysis time (seconds) = 3.48341

Total elapsed time (seconds) = 3.556 

Total DRAM available = 16384.000 MB.
DRAM currently available =  127.438 MB.
Maximum ngspice program size =   17.641 MB.
Current ngspice program size =   17.641 MB.

