
Note: No compatibility mode selected!


Circuit: GF180MCU library cell inv_1 I_to_ZN

Doing analysis at TEMP = 70.908712 and TNOM = 27.000000

Using SPARSE 1.3 as Direct Linear Solver

Initial Transient Solution
--------------------------

Node                                   Voltage
----                                   -------
vdd                                    1.93089
i                                            0
zn                                     1.93089
vin#branch                                   0
vdd#branch                        -2.89777e-12

 Reference value :  1.97905e-07
No. of Data Rows : 68030

  Measurements for Transient Analysis

tphl                =  2.82963e-09 targ=  3.27734e-08 trig=  2.99437e-08
tplh                =  5.33627e-09 targ=  1.17167e-07 trig=  1.11831e-07
i_vdd_avg           =  -8.50443e-07 from=  1.00000e-08 to=  3.30002e-07
power_avg_uw        =  1.64211e+00


Total analysis time (seconds) = 0.435968

Total elapsed time (seconds) = 0.495 

Total DRAM available = 16384.000 MB.
DRAM currently available =  126.141 MB.
Maximum ngspice program size =   15.484 MB.
Current ngspice program size =   15.484 MB.

