
Note: No compatibility mode selected!


Circuit: GF180MCU library cell mux2_1 I0_to_Z__I1=0,S=0

Doing analysis at TEMP = 13.562713 and TNOM = 27.000000

Using SPARSE 1.3 as Direct Linear Solver

Initial Transient Solution
--------------------------

Node                                   Voltage
----                                   -------
vdd                                    1.67352
i0                                           0
i1                                           0
s                                            0
xu1.int04                              1.67352
z                                  1.51165e-08
xu1.net_1                           0.00149047
xu1.net_3                              1.07661
xu1.sel1_n                             1.67352
xu1.net_0                              1.67352
xu1.net_2                              1.67352
vfix_s#branch                                0
vfix_i1#branch                               0
vin#branch                                   0
vdd#branch                        -8.98553e-12

 Reference value :  4.85901e-08
 Reference value :  1.01133e-07
 Reference value :  1.60683e-07
 Reference value :  2.13180e-07
 Reference value :  2.70603e-07
 Reference value :  3.31383e-07
No. of Data Rows : 68034

  Measurements for Transient Analysis

tplh                =  1.82728e-09 targ=  2.63411e-08 trig=  2.45138e-08
tphl                =  2.66923e-09 targ=  9.82107e-08 trig=  9.55414e-08
i_vdd_avg           =  -1.79119e-07 from=  1.00000e-08 to=  3.30003e-07
power_avg_uw        =  2.99759e-01


Total analysis time (seconds) = 1.91231

Total elapsed time (seconds) = 1.985 

Total DRAM available = 16384.000 MB.
DRAM currently available =   95.297 MB.
Maximum ngspice program size =   16.828 MB.
Current ngspice program size =   16.828 MB.

