
Note: No compatibility mode selected!


Circuit: GF180MCU library cell inv_4 I_to_ZN

Doing analysis at TEMP = 94.320167 and TNOM = 27.000000

Using SPARSE 1.3 as Direct Linear Solver

Initial Transient Solution
--------------------------

Node                                   Voltage
----                                   -------
vdd                                    1.72215
i                                            0
zn                                     1.72215
vin#branch                                   0
vdd#branch                        -7.83274e-12

 Reference value :  8.61145e-08
 Reference value :  1.91220e-07
 Reference value :  2.88962e-07
No. of Data Rows : 68030

  Measurements for Transient Analysis

tphl                =  1.88026e-09 targ=  2.73488e-08 trig=  2.54685e-08
tplh                =  3.66559e-09 targ=  1.02071e-07 trig=  9.84055e-08
i_vdd_avg           =  -1.80880e-06 from=  1.00000e-08 to=  3.30002e-07
power_avg_uw        =  3.11503e+00


Total analysis time (seconds) = 1.05592

Total elapsed time (seconds) = 1.106 

Total DRAM available = 16384.000 MB.
DRAM currently available =  127.641 MB.
Maximum ngspice program size =   14.312 MB.
Current ngspice program size =   14.312 MB.

