
Note: No compatibility mode selected!


Circuit: GF180MCU library cell oai21_4 A1_to_ZN__A2=0,B=1

Doing analysis at TEMP = 85.998065 and TNOM = 27.000000

Using SPARSE 1.3 as Direct Linear Solver

Initial Transient Solution
--------------------------

Node                                   Voltage
----                                   -------
vdd                                     1.7828
a1                                           0
a2                                           0
b                                       1.7828
zn                                      1.7828
xu1.net_0                          2.60818e-09
xu1.net_1_0                             1.7828
xu1.net_1_1                             1.7828
xu1.net_1_2                             1.7828
xu1.net_1_3                             1.7828
vfix_b#branch                                0
vfix_a2#branch                               0
vin#branch                                   0
vdd#branch                        -1.54435e-11

 Reference value :  2.75475e-08
 Reference value :  6.15613e-08
 Reference value :  9.29013e-08
 Reference value :  1.22235e-07
 Reference value :  1.51725e-07
 Reference value :  1.82860e-07
 Reference value :  2.15181e-07
 Reference value :  2.43786e-07
 Reference value :  2.73130e-07
 Reference value :  3.02785e-07
 Reference value :  3.35350e-07
No. of Data Rows : 68032

  Measurements for Transient Analysis

tphl                =  1.53287e-09 targ=  2.98048e-08 trig=  2.82719e-08
tplh                =  3.39495e-09 targ=  1.10211e-07 trig=  1.06816e-07
i_vdd_avg           =  -3.35990e-07 from=  1.00000e-08 to=  3.30000e-07
power_avg_uw        =  5.99003e-01


Total analysis time (seconds) = 3.55627

Total elapsed time (seconds) = 3.618 

Total DRAM available = 16384.000 MB.
DRAM currently available =   64.172 MB.
Maximum ngspice program size =   15.672 MB.
Current ngspice program size =   15.672 MB.

