
Note: No compatibility mode selected!


Circuit: GF180MCU library cell xor2_1 A1_to_Z__A2=0

Doing analysis at TEMP = 34.267598 and TNOM = 27.000000

Using SPARSE 1.3 as Direct Linear Solver

Initial Transient Solution
--------------------------

Node                                   Voltage
----                                   -------
vdd                                     1.6738
a1                                           0
a2                                           0
xu1.i                                   1.6738
z                                  5.47913e-08
xu1.net_0                          7.08766e-10
xu1.net_2                               1.6738
xu1.net_1                             0.802213
vfix_a2#branch                               0
vin#branch                                   0
vdd#branch                        -9.40431e-12

 Reference value :  5.53319e-08
 Reference value :  1.22416e-07
 Reference value :  1.92567e-07
 Reference value :  2.62626e-07
 Reference value :  3.30966e-07
No. of Data Rows : 68032

  Measurements for Transient Analysis

tplh                =  3.10739e-08 targ=  5.66036e-08 trig=  2.55297e-08
tphl                =  7.72713e-09 targ=  1.06316e-07 trig=  9.85891e-08
i_vdd_avg           =  -2.11184e-06 from=  1.00000e-08 to=  3.30001e-07
power_avg_uw        =  3.53479e+00


Total analysis time (seconds) = 1.66602

Total elapsed time (seconds) = 1.739 

Total DRAM available = 16384.000 MB.
DRAM currently available =  130.047 MB.
Maximum ngspice program size =   16.844 MB.
Current ngspice program size =   16.844 MB.

