
Note: No compatibility mode selected!


Circuit: GF180MCU library cell aoi21_1 A1_to_ZN__A2=1,B=0

Doing analysis at TEMP = 89.518693 and TNOM = 27.000000

Using SPARSE 1.3 as Direct Linear Solver

Initial Transient Solution
--------------------------

Node                                   Voltage
----                                   -------
vdd                                    1.69299
a1                                           0
a2                                     1.69299
b                                            0
xu1.net_0                          1.87615e-08
zn                                     1.69299
xu1.net_1                              1.69299
vfix_b#branch                                0
vfix_a2#branch                               0
vin#branch                                   0
vdd#branch                        -8.99053e-12

 Reference value :  1.03956e-07
 Reference value :  2.29986e-07
 Reference value :  3.35090e-07
No. of Data Rows : 68032

  Measurements for Transient Analysis

tphl                =  5.35906e-09 targ=  3.53360e-08 trig=  2.99769e-08
tplh                =  1.08474e-08 targ=  1.22778e-07 trig=  1.11931e-07
i_vdd_avg           =  -9.74042e-07 from=  1.00000e-08 to=  3.30000e-07
power_avg_uw        =  1.64904e+00


Total analysis time (seconds) = 0.793461

Total elapsed time (seconds) = 0.856 

Total DRAM available = 16384.000 MB.
DRAM currently available =   93.438 MB.
Maximum ngspice program size =   14.062 MB.
Current ngspice program size =   14.062 MB.

