
Note: No compatibility mode selected!


Circuit: GF180MCU library cell nand3_4 A1_to_ZN__A2=1,A3=1

Doing analysis at TEMP = 42.021082 and TNOM = 27.000000

Using SPARSE 1.3 as Direct Linear Solver

Initial Transient Solution
--------------------------

Node                                   Voltage
----                                   -------
vdd                                    1.75658
a1                                           0
a2                                     1.75658
a3                                     1.75658
xu1.net_1_3                         4.7936e-11
xu1.net_0                          9.58721e-11
xu1.net_1_2                        4.79361e-11
xu1.net_1_1                         4.7936e-11
xu1.net_1_0                        4.79362e-11
xu1.net_0_0                        9.58723e-11
zn                                     1.75658
vfix_a3#branch                               0
vfix_a2#branch                               0
vin#branch                                   0
vdd#branch                        -7.08849e-12

 Reference value :  2.63925e-08
 Reference value :  5.53161e-08
 Reference value :  8.62711e-08
 Reference value :  1.15080e-07
 Reference value :  1.46185e-07
 Reference value :  1.73640e-07
 Reference value :  2.04581e-07
 Reference value :  2.36411e-07
 Reference value :  2.67246e-07
 Reference value :  2.98310e-07
 Reference value :  3.28840e-07
No. of Data Rows : 68034

  Measurements for Transient Analysis

tphl                =  4.70597e-09 targ=  3.21128e-08 trig=  2.74068e-08
tplh                =  5.94150e-09 targ=  1.10162e-07 trig=  1.04220e-07
i_vdd_avg           =  -2.14240e-06 from=  1.00000e-08 to=  3.30005e-07
power_avg_uw        =  3.76331e+00


Total analysis time (seconds) = 3.8129

Total elapsed time (seconds) = 3.875 

Total DRAM available = 16384.000 MB.
DRAM currently available =   83.562 MB.
Maximum ngspice program size =   12.781 MB.
Current ngspice program size =   12.750 MB.

