
Note: No compatibility mode selected!


Circuit: GF180MCU library cell inv_4 I_to_ZN

Doing analysis at TEMP = 123.997160 and TNOM = 27.000000

Using SPARSE 1.3 as Direct Linear Solver

Initial Transient Solution
--------------------------

Node                                   Voltage
----                                   -------
vdd                                    1.79778
i                                            0
zn                                     1.79778
vin#branch                                   0
vdd#branch                        -7.09359e-11

 Reference value :  6.85393e-08
 Reference value :  1.62696e-07
 Reference value :  2.58344e-07
No. of Data Rows : 68030

  Measurements for Transient Analysis

tphl                =  6.50699e-10 targ=  2.59616e-08 trig=  2.53109e-08
tplh                =  1.19858e-09 targ=  9.91313e-08 trig=  9.79327e-08
i_vdd_avg           =  -6.15300e-07 from=  1.00000e-08 to=  3.30001e-07
power_avg_uw        =  1.10618e+00


Total analysis time (seconds) = 1.2381

Total elapsed time (seconds) = 1.314 

Total DRAM available = 16384.000 MB.
DRAM currently available =  140.766 MB.
Maximum ngspice program size =   16.781 MB.
Current ngspice program size =   16.781 MB.

