
Note: No compatibility mode selected!


Circuit: GF180MCU library cell xor2_1 A1_to_Z__A2=0

Doing analysis at TEMP = 91.048816 and TNOM = 27.000000

Using SPARSE 1.3 as Direct Linear Solver

Initial Transient Solution
--------------------------

Node                                   Voltage
----                                   -------
vdd                                    1.87585
a1                                           0
a2                                           0
xu1.i                                  1.87584
z                                  4.09396e-08
xu1.net_0                          2.04062e-08
xu1.net_2                              1.87584
xu1.net_1                              0.55551
vfix_a2#branch                               0
vin#branch                                   0
vdd#branch                        -2.62077e-10

 Reference value :  5.08284e-08
 Reference value :  1.21064e-07
 Reference value :  1.95008e-07
 Reference value :  2.67103e-07
 Reference value :  3.37364e-07
No. of Data Rows : 68032

  Measurements for Transient Analysis

tplh                =  5.13905e-09 targ=  3.34820e-08 trig=  2.83430e-08
tphl                =  3.32944e-09 targ=  1.10358e-07 trig=  1.07029e-07
i_vdd_avg           =  -1.49999e-06 from=  1.00000e-08 to=  3.30004e-07
power_avg_uw        =  2.81376e+00


Total analysis time (seconds) = 1.50219

Total elapsed time (seconds) = 1.582 

Total DRAM available = 16384.000 MB.
DRAM currently available =  108.391 MB.
Maximum ngspice program size =   18.469 MB.
Current ngspice program size =   18.469 MB.

