
Note: No compatibility mode selected!


Circuit: GF180MCU library cell nor2_1 A1_to_ZN__A2=0

Doing analysis at TEMP = 49.300655 and TNOM = 27.000000

Using SPARSE 1.3 as Direct Linear Solver

Initial Transient Solution
--------------------------

Node                                   Voltage
----                                   -------
vdd                                    1.96211
a1                                           0
a2                                           0
zn                                     1.96211
xu1.net_0                              1.96211
vfix_a2#branch                               0
vin#branch                                   0
vdd#branch                        -3.96819e-12

 Reference value :  1.08200e-07
 Reference value :  2.49115e-07
No. of Data Rows : 68034

  Measurements for Transient Analysis

tphl                =  7.01167e-09 targ=  3.65256e-08 trig=  2.95139e-08
tplh                =  1.76660e-08 targ=  1.28208e-07 trig=  1.10542e-07
i_vdd_avg           =  -1.86590e-06 from=  1.00000e-08 to=  3.30003e-07
power_avg_uw        =  3.66110e+00


Total analysis time (seconds) = 0.787235

Total elapsed time (seconds) = 0.872 

Total DRAM available = 16384.000 MB.
DRAM currently available =   84.797 MB.
Maximum ngspice program size =   16.797 MB.
Current ngspice program size =   16.797 MB.

