
Note: No compatibility mode selected!


Circuit: GF180MCU library cell aoi21_4 A1_to_ZN__A2=1,B=0

Doing analysis at TEMP = 13.969117 and TNOM = 27.000000

Using SPARSE 1.3 as Direct Linear Solver

Initial Transient Solution
--------------------------

Node                                   Voltage
----                                   -------
vdd                                    1.92727
a1                                           0
a2                                     1.92727
b                                            0
xu1.net_0_0                        6.75991e-11
zn                                     1.92727
xu1.net_0_1                        6.75987e-11
xu1.net_0_2                        6.75991e-11
xu1.net_0_3                        6.75987e-11
xu1.net_1                              1.92727
vfix_b#branch                                0
vfix_a2#branch                               0
vin#branch                                   0
vdd#branch                        -1.56247e-11

 Reference value :  2.76725e-08
 Reference value :  6.17180e-08
 Reference value :  9.14380e-08
 Reference value :  1.21329e-07
 Reference value :  1.48889e-07
 Reference value :  1.78999e-07
 Reference value :  2.09723e-07
 Reference value :  2.42483e-07
 Reference value :  2.74299e-07
 Reference value :  3.04899e-07
 Reference value :  3.38654e-07
No. of Data Rows : 68032

  Measurements for Transient Analysis

tphl                =  1.37836e-09 targ=  2.73436e-08 trig=  2.59653e-08
tplh                =  2.67046e-09 targ=  1.02566e-07 trig=  9.98958e-08
i_vdd_avg           =  -1.34978e-06 from=  1.00000e-08 to=  3.30004e-07
power_avg_uw        =  2.60139e+00


Total analysis time (seconds) = 3.44137

Total elapsed time (seconds) = 3.510 

Total DRAM available = 16384.000 MB.
DRAM currently available =  108.750 MB.
Maximum ngspice program size =   13.625 MB.
Current ngspice program size =   13.625 MB.

