
Note: No compatibility mode selected!


Circuit: GF180MCU library cell xor2_1 A1_to_Z__A2=0

Doing analysis at TEMP = -34.591485 and TNOM = 27.000000

Using SPARSE 1.3 as Direct Linear Solver

Initial Transient Solution
--------------------------

Node                                   Voltage
----                                   -------
vdd                                     1.7447
a1                                           0
a2                                           0
xu1.i                                   1.7447
z                                  3.05481e-08
xu1.net_0                          6.35307e-12
xu1.net_2                               1.7447
xu1.net_1                             0.842271
vfix_a2#branch                               0
vin#branch                                   0
vdd#branch                        -9.73906e-12

 Reference value :  4.87262e-08
 Reference value :  1.16435e-07
 Reference value :  1.90241e-07
 Reference value :  2.63580e-07
 Reference value :  3.32815e-07
No. of Data Rows : 68034

  Measurements for Transient Analysis

tplh                =  2.21387e-09 targ=  2.63932e-08 trig=  2.41793e-08
tphl                =  1.37319e-09 targ=  9.59112e-08 trig=  9.45380e-08
i_vdd_avg           =  -3.65241e-07 from=  1.00000e-08 to=  3.30005e-07
power_avg_uw        =  6.37235e-01


Total analysis time (seconds) = 1.55876

Total elapsed time (seconds) = 1.628 

Total DRAM available = 16384.000 MB.
DRAM currently available =  159.375 MB.
Maximum ngspice program size =   17.656 MB.
Current ngspice program size =   17.656 MB.

