
Note: No compatibility mode selected!


Circuit: GF180MCU library cell nand3_1 A1_to_ZN__A2=1,A3=1

Doing analysis at TEMP = 17.795011 and TNOM = 27.000000

Using SPARSE 1.3 as Direct Linear Solver

Initial Transient Solution
--------------------------

Node                                   Voltage
----                                   -------
vdd                                    1.65613
a1                                           0
a2                                     1.65613
a3                                     1.65613
xu1.net_1                          5.35632e-12
xu1.net_0                          1.07126e-11
zn                                     1.65613
vfix_a3#branch                               0
vfix_a2#branch                               0
vin#branch                                   0
vdd#branch                        -1.66673e-12

 Reference value :  6.99109e-08
 Reference value :  1.69724e-07
 Reference value :  2.73079e-07
No. of Data Rows : 68034

  Measurements for Transient Analysis

tphl                =  6.92371e-09 targ=  3.47229e-08 trig=  2.77992e-08
tplh                =  8.97644e-09 targ=  1.14374e-07 trig=  1.05398e-07
i_vdd_avg           =  -7.35706e-07 from=  1.00000e-08 to=  3.30004e-07
power_avg_uw        =  1.21842e+00


Total analysis time (seconds) = 1.11176

Total elapsed time (seconds) = 1.179 

Total DRAM available = 16384.000 MB.
DRAM currently available =  114.172 MB.
Maximum ngspice program size =   15.094 MB.
Current ngspice program size =   15.094 MB.

