
Note: No compatibility mode selected!


Circuit: GF180MCU library cell aoi21_4 A1_to_ZN__A2=1,B=0

Doing analysis at TEMP = -32.361747 and TNOM = 27.000000

Using SPARSE 1.3 as Direct Linear Solver

Initial Transient Solution
--------------------------

Node                                   Voltage
----                                   -------
vdd                                    1.78858
a1                                           0
a2                                     1.78858
b                                            0
xu1.net_0_0                        1.16507e-14
zn                                     1.78858
xu1.net_0_1                        6.96602e-15
xu1.net_0_2                        1.16507e-14
xu1.net_0_3                        6.96602e-15
xu1.net_1                              1.78858
vfix_b#branch                                0
vfix_a2#branch                               0
vin#branch                                   0
vdd#branch                        -1.43887e-11

 Reference value :  2.90725e-08
 Reference value :  6.39825e-08
 Reference value :  9.51725e-08
 Reference value :  1.25448e-07
 Reference value :  1.57623e-07
 Reference value :  1.89268e-07
 Reference value :  2.20898e-07
 Reference value :  2.48508e-07
 Reference value :  2.80243e-07
 Reference value :  3.12053e-07
No. of Data Rows : 68032

  Measurements for Transient Analysis

tphl                =  1.30112e-09 targ=  2.59086e-08 trig=  2.46075e-08
tplh                =  3.35731e-09 targ=  9.91798e-08 trig=  9.58225e-08
i_vdd_avg           =  -1.16495e-06 from=  1.00000e-08 to=  3.30003e-07
power_avg_uw        =  2.08361e+00


Total analysis time (seconds) = 3.34938

Total elapsed time (seconds) = 3.414 

Total DRAM available = 16384.000 MB.
DRAM currently available =  117.125 MB.
Maximum ngspice program size =   12.734 MB.
Current ngspice program size =   12.672 MB.

