
Note: No compatibility mode selected!


Circuit: GF180MCU library cell inv_1 I_to_ZN

Doing analysis at TEMP = 119.866660 and TNOM = 27.000000

Using SPARSE 1.3 as Direct Linear Solver

Initial Transient Solution
--------------------------

Node                                   Voltage
----                                   -------
vdd                                    1.80118
i                                            0
zn                                     1.80118
vin#branch                                   0
vdd#branch                        -1.49305e-11

 Reference value :  2.09421e-07
No. of Data Rows : 68034

  Measurements for Transient Analysis

tphl                =  3.02017e-09 targ=  3.17143e-08 trig=  2.86941e-08
tplh                =  5.25031e-09 targ=  1.13333e-07 trig=  1.08082e-07
i_vdd_avg           =  -8.50096e-07 from=  1.00000e-08 to=  3.30004e-07
power_avg_uw        =  1.53118e+00


Total analysis time (seconds) = 0.430265

Total elapsed time (seconds) = 0.475 

Total DRAM available = 16384.000 MB.
DRAM currently available =  109.594 MB.
Maximum ngspice program size =   14.391 MB.
Current ngspice program size =   14.391 MB.

