
Note: No compatibility mode selected!


Circuit: GF180MCU library cell nor2_1 A1_to_ZN__A2=0

Doing analysis at TEMP = 45.741279 and TNOM = 27.000000

Using SPARSE 1.3 as Direct Linear Solver

Initial Transient Solution
--------------------------

Node                                   Voltage
----                                   -------
vdd                                    1.80633
a1                                           0
a2                                           0
zn                                     1.80633
xu1.net_0                              1.80633
vfix_a2#branch                               0
vin#branch                                   0
vdd#branch                        -3.64972e-12

 Reference value :  1.53310e-07
 Reference value :  3.08140e-07
No. of Data Rows : 68032

  Measurements for Transient Analysis

tphl                =  3.36996e-09 targ=  3.31405e-08 trig=  2.97705e-08
tplh                =  6.54322e-09 targ=  1.17855e-07 trig=  1.11312e-07
i_vdd_avg           =  -3.00513e-07 from=  1.00000e-08 to=  3.30005e-07
power_avg_uw        =  5.42826e-01


Total analysis time (seconds) = 0.648192

Total elapsed time (seconds) = 0.707 

Total DRAM available = 16384.000 MB.
DRAM currently available =   84.797 MB.
Maximum ngspice program size =   13.875 MB.
Current ngspice program size =   13.875 MB.

