
Note: No compatibility mode selected!


Circuit: GF180MCU library cell inv_4 I_to_ZN

Doing analysis at TEMP = -27.895542 and TNOM = 27.000000

Using SPARSE 1.3 as Direct Linear Solver

Initial Transient Solution
--------------------------

Node                                   Voltage
----                                   -------
vdd                                    1.77656
i                                            0
zn                                     1.77656
vin#branch                                   0
vdd#branch                        -7.14687e-12

 Reference value :  6.26049e-08
 Reference value :  1.60642e-07
 Reference value :  2.68552e-07
No. of Data Rows : 68030

  Measurements for Transient Analysis

tphl                =  8.18499e-10 targ=  2.68672e-08 trig=  2.60487e-08
tplh                =  1.60276e-09 targ=  1.01749e-07 trig=  1.00146e-07
i_vdd_avg           =  -5.46235e-07 from=  1.00000e-08 to=  3.30002e-07
power_avg_uw        =  9.70422e-01


Total analysis time (seconds) = 1.1249

Total elapsed time (seconds) = 1.194 

Total DRAM available = 16384.000 MB.
DRAM currently available =  108.609 MB.
Maximum ngspice program size =   16.859 MB.
Current ngspice program size =   16.859 MB.

