
Note: No compatibility mode selected!


Circuit: GF180MCU library cell xor2_1 A1_to_Z__A2=0

Doing analysis at TEMP = 7.960754 and TNOM = 27.000000

Using SPARSE 1.3 as Direct Linear Solver

Initial Transient Solution
--------------------------

Node                                   Voltage
----                                   -------
vdd                                    1.68772
a1                                           0
a2                                           0
xu1.i                                  1.68772
z                                  3.65418e-08
xu1.net_0                          8.55021e-10
xu1.net_2                              1.68772
xu1.net_1                             0.751057
vfix_a2#branch                               0
vin#branch                                   0
vdd#branch                        -9.70834e-12

 Reference value :  7.09397e-08
 Reference value :  1.42942e-07
 Reference value :  2.11660e-07
 Reference value :  2.85767e-07
No. of Data Rows : 68030

  Measurements for Transient Analysis

tplh                =  1.30438e-08 targ=  3.80874e-08 trig=  2.50436e-08
tphl                =  3.97011e-09 targ=  1.01101e-07 trig=  9.71308e-08
i_vdd_avg           =  -1.71332e-06 from=  1.00000e-08 to=  3.30002e-07
power_avg_uw        =  2.89161e+00


Total analysis time (seconds) = 1.34284

Total elapsed time (seconds) = 1.403 

Total DRAM available = 16384.000 MB.
DRAM currently available =  108.391 MB.
Maximum ngspice program size =   15.375 MB.
Current ngspice program size =   15.375 MB.

