
Note: No compatibility mode selected!


Circuit: GF180MCU library cell nor2_4 A1_to_ZN__A2=0

Doing analysis at TEMP = 50.743289 and TNOM = 27.000000

Using SPARSE 1.3 as Direct Linear Solver

Initial Transient Solution
--------------------------

Node                                   Voltage
----                                   -------
vdd                                    1.73162
a1                                           0
a2                                           0
zn                                     1.73162
xu1.net_0_0                            1.73162
xu1.net_0_1                            1.73162
xu1.net_0_2                            1.73162
xu1.net_0_3                            1.73162
vfix_a2#branch                               0
vin#branch                                   0
vdd#branch                        -5.81229e-11

 Reference value :  3.31631e-08
 Reference value :  8.34981e-08
 Reference value :  1.31284e-07
 Reference value :  1.81074e-07
 Reference value :  2.29308e-07
 Reference value :  2.74334e-07
 Reference value :  3.24559e-07
No. of Data Rows : 68032

  Measurements for Transient Analysis

tphl                =  3.32416e-10 targ=  2.53702e-08 trig=  2.50378e-08
tplh                =  8.52574e-10 targ=  9.79660e-08 trig=  9.71134e-08
i_vdd_avg           =  -3.47546e-07 from=  1.00000e-08 to=  3.30004e-07
power_avg_uw        =  6.01819e-01


Total analysis time (seconds) = 2.30522

Total elapsed time (seconds) = 2.398 

Total DRAM available = 16384.000 MB.
DRAM currently available =   99.078 MB.
Maximum ngspice program size =   17.500 MB.
Current ngspice program size =   17.500 MB.

