
Note: No compatibility mode selected!


Circuit: GF180MCU library cell nand3_4 A1_to_ZN__A2=1,A3=1

Doing analysis at TEMP = -32.635966 and TNOM = 27.000000

Using SPARSE 1.3 as Direct Linear Solver

Initial Transient Solution
--------------------------

Node                                   Voltage
----                                   -------
vdd                                     1.7738
a1                                           0
a2                                      1.7738
a3                                      1.7738
xu1.net_1_3                        1.94126e-11
xu1.net_0                          3.88253e-11
xu1.net_1_2                        1.94127e-11
xu1.net_1_1                        1.94126e-11
xu1.net_1_0                        1.94126e-11
xu1.net_0_0                        3.88252e-11
zn                                      1.7738
vfix_a3#branch                               0
vfix_a2#branch                               0
vin#branch                                   0
vdd#branch                        -7.15652e-12

 Reference value :  2.77125e-08
 Reference value :  6.18307e-08
 Reference value :  8.96957e-08
 Reference value :  1.20274e-07
 Reference value :  1.50599e-07
 Reference value :  1.80804e-07
 Reference value :  2.10581e-07
 Reference value :  2.41916e-07
 Reference value :  2.73611e-07
 Reference value :  3.04514e-07
 Reference value :  3.31794e-07
No. of Data Rows : 68034

  Measurements for Transient Analysis

tphl                =  1.29074e-09 targ=  3.03498e-08 trig=  2.90591e-08
tplh                =  2.75085e-09 targ=  1.11928e-07 trig=  1.09177e-07
i_vdd_avg           =  -1.04647e-06 from=  1.00000e-08 to=  3.30004e-07
power_avg_uw        =  1.85623e+00


Total analysis time (seconds) = 3.72407

Total elapsed time (seconds) = 3.793 

Total DRAM available = 16384.000 MB.
DRAM currently available =   89.688 MB.
Maximum ngspice program size =   14.781 MB.
Current ngspice program size =   14.781 MB.

