
Note: No compatibility mode selected!


Circuit: GF180MCU library cell aoi21_1 A1_to_ZN__A2=1,B=0

Doing analysis at TEMP = 58.854669 and TNOM = 27.000000

Using SPARSE 1.3 as Direct Linear Solver

Initial Transient Solution
--------------------------

Node                                   Voltage
----                                   -------
vdd                                    1.86005
a1                                           0
a2                                     1.86005
b                                            0
xu1.net_0                          2.52995e-09
zn                                     1.86005
xu1.net_1                              1.86005
vfix_b#branch                                0
vfix_a2#branch                               0
vin#branch                                   0
vdd#branch                        -4.68364e-12

 Reference value :  7.39383e-08
 Reference value :  1.81579e-07
 Reference value :  2.90639e-07
No. of Data Rows : 68032

  Measurements for Transient Analysis

tphl                =  3.85375e-09 targ=  2.99142e-08 trig=  2.60604e-08
tplh                =  9.09817e-09 targ=  1.09279e-07 trig=  1.00181e-07
i_vdd_avg           =  -1.38998e-06 from=  1.00000e-08 to=  3.30004e-07
power_avg_uw        =  2.58543e+00


Total analysis time (seconds) = 1.04765

Total elapsed time (seconds) = 1.115 

Total DRAM available = 16384.000 MB.
DRAM currently available =  122.906 MB.
Maximum ngspice program size =   16.266 MB.
Current ngspice program size =   16.266 MB.

