
Note: No compatibility mode selected!


Circuit: GF180MCU library cell nand3_4 A1_to_ZN__A2=1,A3=1

Doing analysis at TEMP = 51.485582 and TNOM = 27.000000

Using SPARSE 1.3 as Direct Linear Solver

Initial Transient Solution
--------------------------

Node                                   Voltage
----                                   -------
vdd                                    1.80376
a1                                           0
a2                                     1.80376
a3                                     1.80376
xu1.net_1_3                        1.51734e-09
xu1.net_0                          3.03468e-09
xu1.net_1_2                        1.51734e-09
xu1.net_1_1                        1.51734e-09
xu1.net_1_0                        1.51734e-09
xu1.net_0_0                        3.03468e-09
zn                                     1.80376
vfix_a3#branch                               0
vfix_a2#branch                               0
vin#branch                                   0
vdd#branch                        -8.25617e-12

 Reference value :  2.85525e-08
 Reference value :  6.04893e-08
 Reference value :  9.02293e-08
 Reference value :  1.19416e-07
 Reference value :  1.48841e-07
 Reference value :  1.78071e-07
 Reference value :  2.08314e-07
 Reference value :  2.38914e-07
 Reference value :  2.69366e-07
 Reference value :  2.99501e-07
 Reference value :  3.29041e-07
No. of Data Rows : 68030

  Measurements for Transient Analysis

tphl                =  3.24691e-09 targ=  3.03228e-08 trig=  2.70759e-08
tplh                =  4.06491e-09 targ=  1.07293e-07 trig=  1.03228e-07
i_vdd_avg           =  -2.42663e-06 from=  1.00000e-08 to=  3.30001e-07
power_avg_uw        =  4.37706e+00


Total analysis time (seconds) = 3.74697

Total elapsed time (seconds) = 3.810 

Total DRAM available = 16384.000 MB.
DRAM currently available =   89.688 MB.
Maximum ngspice program size =   14.312 MB.
Current ngspice program size =   14.234 MB.

