
Note: No compatibility mode selected!


Circuit: GF180MCU library cell nand2_1 A1_to_ZN__A2=1

Doing analysis at TEMP = -12.882356 and TNOM = 27.000000

Using SPARSE 1.3 as Direct Linear Solver

Initial Transient Solution
--------------------------

Node                                   Voltage
----                                   -------
vdd                                    1.75198
a1                                           0
a2                                     1.75198
xu1.net_0                          1.64198e-13
zn                                     1.75198
vfix_a2#branch                               0
vin#branch                                   0
vdd#branch                          -1.762e-12

 Reference value :  1.25055e-07
 Reference value :  2.94580e-07
No. of Data Rows : 68034

  Measurements for Transient Analysis

tphl                =  9.66228e-09 targ=  3.83991e-08 trig=  2.87368e-08
tplh                =  1.45936e-08 targ=  1.22804e-07 trig=  1.08210e-07
i_vdd_avg           =  -1.96933e-06 from=  1.00000e-08 to=  3.30005e-07
power_avg_uw        =  3.45022e+00


Total analysis time (seconds) = 0.645896

Total elapsed time (seconds) = 0.702 

Total DRAM available = 16384.000 MB.
DRAM currently available =  108.656 MB.
Maximum ngspice program size =   16.234 MB.
Current ngspice program size =   16.234 MB.

