
Note: No compatibility mode selected!


Circuit: GF180MCU library cell nand2_1 A1_to_ZN__A2=1

Doing analysis at TEMP = 63.395049 and TNOM = 27.000000

Using SPARSE 1.3 as Direct Linear Solver

Initial Transient Solution
--------------------------

Node                                   Voltage
----                                   -------
vdd                                    1.96131
a1                                           0
a2                                     1.96131
xu1.net_0                          3.38563e-09
zn                                     1.96131
vfix_a2#branch                               0
vin#branch                                   0
vdd#branch                        -2.57152e-12

 Reference value :  1.11894e-07
 Reference value :  2.79769e-07
No. of Data Rows : 68034

  Measurements for Transient Analysis

tphl                =  2.09084e-09 targ=  2.80424e-08 trig=  2.59515e-08
tplh                =  2.86027e-09 targ=  1.02715e-07 trig=  9.98546e-08
i_vdd_avg           =  -6.90289e-07 from=  1.00000e-08 to=  3.30004e-07
power_avg_uw        =  1.35387e+00


Total analysis time (seconds) = 0.73377

Total elapsed time (seconds) = 0.809 

Total DRAM available = 16384.000 MB.
DRAM currently available =  108.656 MB.
Maximum ngspice program size =   17.469 MB.
Current ngspice program size =   17.469 MB.

