
Note: No compatibility mode selected!


Circuit: GF180MCU library cell oai21_4 A1_to_ZN__A2=0,B=1

Doing analysis at TEMP = -36.058035 and TNOM = 27.000000

Using SPARSE 1.3 as Direct Linear Solver

Initial Transient Solution
--------------------------

Node                                   Voltage
----                                   -------
vdd                                     1.8705
a1                                           0
a2                                           0
b                                       1.8705
zn                                      1.8705
xu1.net_0                          2.56605e-11
xu1.net_1_0                             1.8705
xu1.net_1_1                             1.8705
xu1.net_1_2                             1.8705
xu1.net_1_3                             1.8705
vfix_b#branch                                0
vfix_a2#branch                               0
vin#branch                                   0
vdd#branch                        -1.50743e-11

 Reference value :  3.00175e-08
 Reference value :  6.30920e-08
 Reference value :  9.44070e-08
 Reference value :  1.23106e-07
 Reference value :  1.54361e-07
 Reference value :  1.86363e-07
 Reference value :  2.18152e-07
 Reference value :  2.49827e-07
 Reference value :  2.82336e-07
 Reference value :  3.13771e-07
No. of Data Rows : 68032

  Measurements for Transient Analysis

tphl                =  1.15294e-09 targ=  2.89677e-08 trig=  2.78147e-08
tplh                =  3.04650e-09 targ=  1.08491e-07 trig=  1.05444e-07
i_vdd_avg           =  -1.49045e-06 from=  1.00000e-08 to=  3.30001e-07
power_avg_uw        =  2.78789e+00


Total analysis time (seconds) = 3.34652

Total elapsed time (seconds) = 3.408 

Total DRAM available = 16384.000 MB.
DRAM currently available =   76.828 MB.
Maximum ngspice program size =   13.016 MB.
Current ngspice program size =   13.016 MB.

