
Note: No compatibility mode selected!


Circuit: GF180MCU library cell mux2_4 I0_to_Z__I1=0,S=0

Doing analysis at TEMP = 120.039910 and TNOM = 27.000000

Using SPARSE 1.3 as Direct Linear Solver

Initial Transient Solution
--------------------------

Node                                   Voltage
----                                   -------
vdd                                    1.64782
i0                                           0
i1                                           0
s                                            0
xu1.int04                              1.64782
z                                   2.0119e-08
xu1.net_1                            0.0339368
xu1.net_3                               1.1306
xu1.sel1_n                             1.64782
xu1.net_0                              1.64782
xu1.net_2                              1.64782
vfix_s#branch                                0
vfix_i1#branch                               0
vin#branch                                   0
vdd#branch                        -1.63033e-11

 Reference value :  2.53175e-08
 Reference value :  6.13818e-08
 Reference value :  1.00122e-07
 Reference value :  1.39461e-07
 Reference value :  1.80436e-07
 Reference value :  2.15627e-07
 Reference value :  2.56157e-07
 Reference value :  2.94156e-07
 Reference value :  3.29046e-07
No. of Data Rows : 68032

  Measurements for Transient Analysis

tplh                =  6.06927e-09 targ=  3.29589e-08 trig=  2.68896e-08
tphl                =  6.51490e-09 targ=  1.09184e-07 trig=  1.02669e-07
i_vdd_avg           =  -2.08939e-06 from=  1.00000e-08 to=  3.30001e-07
power_avg_uw        =  3.44293e+00


Total analysis time (seconds) = 2.98438

Total elapsed time (seconds) = 3.066 

Total DRAM available = 16384.000 MB.
DRAM currently available =  157.578 MB.
Maximum ngspice program size =   16.031 MB.
Current ngspice program size =   16.031 MB.

