
Note: No compatibility mode selected!


Circuit: GF180MCU library cell nand3_1 A1_to_ZN__A2=1,A3=1

Doing analysis at TEMP = -13.348555 and TNOM = 27.000000

Using SPARSE 1.3 as Direct Linear Solver

Initial Transient Solution
--------------------------

Node                                   Voltage
----                                   -------
vdd                                    1.80065
a1                                           0
a2                                     1.80065
a3                                     1.80065
xu1.net_1                           1.5124e-13
xu1.net_0                           3.0248e-13
zn                                     1.80065
vfix_a3#branch                               0
vfix_a2#branch                               0
vin#branch                                   0
vdd#branch                        -1.81068e-12

 Reference value :  9.10857e-08
 Reference value :  1.90101e-07
 Reference value :  2.85684e-07
No. of Data Rows : 68034

  Measurements for Transient Analysis

tphl                =  5.97891e-09 targ=  3.27230e-08 trig=  2.67441e-08
tplh                =  7.60525e-09 targ=  1.09838e-07 trig=  1.02232e-07
i_vdd_avg           =  -9.61703e-07 from=  1.00000e-08 to=  3.30004e-07
power_avg_uw        =  1.73170e+00


Total analysis time (seconds) = 1.06162

Total elapsed time (seconds) = 1.121 

Total DRAM available = 16384.000 MB.
DRAM currently available =  125.156 MB.
Maximum ngspice program size =   16.891 MB.
Current ngspice program size =   16.891 MB.

