
Note: No compatibility mode selected!


Circuit: GF180MCU library cell inv_1 I_to_ZN

Doing analysis at TEMP = 47.301704 and TNOM = 27.000000

Using SPARSE 1.3 as Direct Linear Solver

Initial Transient Solution
--------------------------

Node                                   Voltage
----                                   -------
vdd                                    1.72101
i                                            0
zn                                     1.72101
vin#branch                                   0
vdd#branch                        -6.09685e-12

 Reference value :  1.71437e-07
No. of Data Rows : 68030

  Measurements for Transient Analysis

tphl                =  1.76570e-09 targ=  2.97393e-08 trig=  2.79736e-08
tplh                =  3.54088e-09 targ=  1.09462e-07 trig=  1.05921e-07
i_vdd_avg           =  -6.64211e-07 from=  1.00000e-08 to=  3.30002e-07
power_avg_uw        =  1.14311e+00


Total analysis time (seconds) = 0.491752

Total elapsed time (seconds) = 0.553 

Total DRAM available = 16384.000 MB.
DRAM currently available =  109.594 MB.
Maximum ngspice program size =   16.344 MB.
Current ngspice program size =   16.344 MB.

