
Note: No compatibility mode selected!


Circuit: GF180MCU library cell aoi21_4 A1_to_ZN__A2=1,B=0

Doing analysis at TEMP = 53.321990 and TNOM = 27.000000

Using SPARSE 1.3 as Direct Linear Solver

Initial Transient Solution
--------------------------

Node                                   Voltage
----                                   -------
vdd                                    1.94178
a1                                           0
a2                                     1.94178
b                                            0
xu1.net_0_0                        1.13416e-10
zn                                     1.94178
xu1.net_0_1                        1.13416e-10
xu1.net_0_2                        1.13416e-10
xu1.net_0_3                        1.13416e-10
xu1.net_1                              1.94178
vfix_b#branch                                0
vfix_a2#branch                               0
vin#branch                                   0
vdd#branch                        -1.57504e-11

 Reference value :  3.00505e-08
 Reference value :  6.63605e-08
 Reference value :  9.91034e-08
 Reference value :  1.27633e-07
 Reference value :  1.58168e-07
 Reference value :  1.90270e-07
 Reference value :  2.21410e-07
 Reference value :  2.53690e-07
 Reference value :  2.86453e-07
 Reference value :  3.16528e-07
No. of Data Rows : 68034

  Measurements for Transient Analysis

tphl                =  5.42138e-10 targ=  2.54911e-08 trig=  2.49490e-08
tplh                =  9.97080e-10 targ=  9.78440e-08 trig=  9.68469e-08
i_vdd_avg           =  -2.20137e-07 from=  1.00000e-08 to=  3.30003e-07
power_avg_uw        =  4.27457e-01


Total analysis time (seconds) = 3.39857

Total elapsed time (seconds) = 3.460 

Total DRAM available = 16384.000 MB.
DRAM currently available =  125.078 MB.
Maximum ngspice program size =   12.859 MB.
Current ngspice program size =   12.859 MB.

