
Note: No compatibility mode selected!


Circuit: GF180MCU library cell inv_4 I_to_ZN

Doing analysis at TEMP = 103.927950 and TNOM = 27.000000

Using SPARSE 1.3 as Direct Linear Solver

Initial Transient Solution
--------------------------

Node                                   Voltage
----                                   -------
vdd                                    1.78678
i                                            0
zn                                     1.78678
vin#branch                                   0
vdd#branch                        -3.81708e-10

 Reference value :  6.50594e-08
 Reference value :  1.58501e-07
 Reference value :  2.65751e-07
No. of Data Rows : 68030

  Measurements for Transient Analysis

tphl                =  4.53112e-10 targ=  2.70666e-08 trig=  2.66135e-08
tplh                =  1.42282e-09 targ=  1.03263e-07 trig=  1.01840e-07
i_vdd_avg           =  -8.70727e-07 from=  1.00000e-08 to=  3.30001e-07
power_avg_uw        =  1.55579e+00


Total analysis time (seconds) = 1.14736

Total elapsed time (seconds) = 1.205 

Total DRAM available = 16384.000 MB.
DRAM currently available =  140.641 MB.
Maximum ngspice program size =   16.062 MB.
Current ngspice program size =   16.062 MB.

