
Note: No compatibility mode selected!


Circuit: GF180MCU library cell nor2_4 A1_to_ZN__A2=0

Doing analysis at TEMP = 55.466397 and TNOM = 27.000000

Using SPARSE 1.3 as Direct Linear Solver

Initial Transient Solution
--------------------------

Node                                   Voltage
----                                   -------
vdd                                    1.63448
a1                                           0
a2                                           0
zn                                     1.63448
xu1.net_0_0                            1.63448
xu1.net_0_1                            1.63448
xu1.net_0_2                            1.63448
xu1.net_0_3                            1.63448
vfix_a2#branch                               0
vin#branch                                   0
vdd#branch                        -6.89622e-11

 Reference value :  3.67619e-08
 Reference value :  8.32819e-08
 Reference value :  1.30631e-07
 Reference value :  1.78681e-07
 Reference value :  2.24957e-07
 Reference value :  2.70786e-07
 Reference value :  3.16561e-07
No. of Data Rows : 68032

  Measurements for Transient Analysis

tphl                =  2.06217e-09 targ=  3.00294e-08 trig=  2.79672e-08
tplh                =  4.64596e-09 targ=  1.10548e-07 trig=  1.05902e-07
i_vdd_avg           =  -2.06810e-06 from=  1.00000e-08 to=  3.30001e-07
power_avg_uw        =  3.38027e+00


Total analysis time (seconds) = 2.30475

Total elapsed time (seconds) = 2.374 

Total DRAM available = 16384.000 MB.
DRAM currently available =  157.516 MB.
Maximum ngspice program size =   17.109 MB.
Current ngspice program size =   17.109 MB.

