
Note: No compatibility mode selected!


Circuit: GF180MCU library cell xor2_4 A1_to_Z__A2=0

Doing analysis at TEMP = -4.785684 and TNOM = 27.000000

Using SPARSE 1.3 as Direct Linear Solver

Initial Transient Solution
--------------------------

Node                                   Voltage
----                                   -------
vdd                                    1.64742
a1                                           0
a2                                           0
xu1.net_2                          0.000266762
xu1.i                                  1.64742
xu1.net_0                          9.28861e-13
xu1.z_neg                              1.64742
z                                  1.44788e-08
xu1.net_1                              1.64742
vfix_a2#branch                               0
vin#branch                                   0
vdd#branch                        -1.18619e-11

 Reference value :  3.98959e-08
 Reference value :  8.28559e-08
 Reference value :  1.24579e-07
 Reference value :  1.64104e-07
 Reference value :  2.05811e-07
 Reference value :  2.48411e-07
 Reference value :  2.92714e-07
 Reference value :  3.35864e-07
No. of Data Rows : 68034

  Measurements for Transient Analysis

tplh                =  4.05112e-09 targ=  2.99953e-08 trig=  2.59442e-08
tphl                =  5.19999e-09 targ=  1.05033e-07 trig=  9.98326e-08
i_vdd_avg           =  -1.20202e-06 from=  1.00000e-08 to=  3.30004e-07
power_avg_uw        =  1.98023e+00


Total analysis time (seconds) = 2.47015

Total elapsed time (seconds) = 2.530 

Total DRAM available = 16384.000 MB.
DRAM currently available =  102.312 MB.
Maximum ngspice program size =   12.906 MB.
Current ngspice program size =   12.906 MB.

