
Note: No compatibility mode selected!


Circuit: GF180MCU library cell aoi21_4 A1_to_ZN__A2=1,B=0

Doing analysis at TEMP = 110.729270 and TNOM = 27.000000

Using SPARSE 1.3 as Direct Linear Solver

Initial Transient Solution
--------------------------

Node                                   Voltage
----                                   -------
vdd                                    1.93196
a1                                           0
a2                                     1.93196
b                                            0
xu1.net_0_0                        5.73504e-08
zn                                     1.93196
xu1.net_0_1                        5.73504e-08
xu1.net_0_2                        5.73504e-08
xu1.net_0_3                        5.73504e-08
xu1.net_1                              1.93196
vfix_b#branch                                0
vfix_a2#branch                               0
vin#branch                                   0
vdd#branch                        -9.06611e-11

 Reference value :  2.30614e-08
 Reference value :  5.25817e-08
 Reference value :  8.34167e-08
 Reference value :  1.11832e-07
 Reference value :  1.42971e-07
 Reference value :  1.75151e-07
 Reference value :  2.06182e-07
 Reference value :  2.39522e-07
 Reference value :  2.70022e-07
 Reference value :  3.01826e-07
 Reference value :  3.32561e-07
No. of Data Rows : 68032

  Measurements for Transient Analysis

tphl                =  2.80411e-09 targ=  3.13637e-08 trig=  2.85596e-08
tplh                =  5.59742e-09 targ=  1.13276e-07 trig=  1.07679e-07
i_vdd_avg           =  -2.54293e-06 from=  1.00000e-08 to=  3.30001e-07
power_avg_uw        =  4.91283e+00


Total analysis time (seconds) = 3.62658

Total elapsed time (seconds) = 3.708 

Total DRAM available = 16384.000 MB.
DRAM currently available =  102.484 MB.
Maximum ngspice program size =   17.766 MB.
Current ngspice program size =   17.766 MB.

