
Note: No compatibility mode selected!


Circuit: GF180MCU library cell nor2_4 A1_to_ZN__A2=0

Doing analysis at TEMP = 107.863810 and TNOM = 27.000000

Using SPARSE 1.3 as Direct Linear Solver

Initial Transient Solution
--------------------------

Node                                   Voltage
----                                   -------
vdd                                    1.67721
a1                                           0
a2                                           0
zn                                      1.6772
xu1.net_0_0                            1.67721
xu1.net_0_1                            1.67721
xu1.net_0_2                            1.67721
xu1.net_0_3                            1.67721
vfix_a2#branch                               0
vin#branch                                   0
vdd#branch                        -6.88508e-11

 Reference value :  4.07583e-08
 Reference value :  8.42283e-08
 Reference value :  1.33934e-07
 Reference value :  1.81804e-07
 Reference value :  2.27638e-07
 Reference value :  2.77634e-07
 Reference value :  3.25069e-07
No. of Data Rows : 68032

  Measurements for Transient Analysis

tphl                =  9.77554e-10 targ=  2.57579e-08 trig=  2.47804e-08
tplh                =  2.54930e-09 targ=  9.88905e-08 trig=  9.63412e-08
i_vdd_avg           =  -1.03994e-06 from=  1.00000e-08 to=  3.30004e-07
power_avg_uw        =  1.74419e+00


Total analysis time (seconds) = 2.31678

Total elapsed time (seconds) = 2.380 

Total DRAM available = 16384.000 MB.
DRAM currently available =   92.250 MB.
Maximum ngspice program size =   16.047 MB.
Current ngspice program size =   16.047 MB.

