
Note: No compatibility mode selected!


Circuit: GF180MCU library cell mux2_1 I0_to_Z__I1=0,S=0

Doing analysis at TEMP = -33.992866 and TNOM = 27.000000

Using SPARSE 1.3 as Direct Linear Solver

Initial Transient Solution
--------------------------

Node                                   Voltage
----                                   -------
vdd                                    1.78011
i0                                           0
i1                                           0
s                                            0
xu1.int04                              1.78011
z                                  1.24618e-08
xu1.net_1                          9.87661e-06
xu1.net_3                              1.08119
xu1.sel1_n                             1.78011
xu1.net_0                              1.78011
xu1.net_2                              1.78011
vfix_s#branch                                0
vfix_i1#branch                               0
vin#branch                                   0
vdd#branch                        -9.41553e-12

 Reference value :  4.19780e-08
 Reference value :  9.94680e-08
 Reference value :  1.55643e-07
 Reference value :  2.07948e-07
 Reference value :  2.66213e-07
 Reference value :  3.23663e-07
No. of Data Rows : 68032

  Measurements for Transient Analysis

tplh                =  1.14880e-08 targ=  3.95633e-08 trig=  2.80752e-08
tphl                =  7.68409e-09 targ=  1.13910e-07 trig=  1.06226e-07
i_vdd_avg           =  -2.05286e-06 from=  1.00000e-08 to=  3.30003e-07
power_avg_uw        =  3.65432e+00


Total analysis time (seconds) = 1.93111

Total elapsed time (seconds) = 2.006 

Total DRAM available = 16384.000 MB.
DRAM currently available =   87.844 MB.
Maximum ngspice program size =   15.609 MB.
Current ngspice program size =   15.609 MB.

