
Note: No compatibility mode selected!


Circuit: GF180MCU library cell oai21_1 A1_to_ZN__A2=0,B=1

Doing analysis at TEMP = -35.825599 and TNOM = 27.000000

Using SPARSE 1.3 as Direct Linear Solver

Initial Transient Solution
--------------------------

Node                                   Voltage
----                                   -------
vdd                                    1.67164
a1                                           0
a2                                           0
b                                      1.67164
zn                                     1.67164
xu1.net_0                          1.48719e-14
xu1.net_1                              1.67164
vfix_b#branch                                0
vfix_a2#branch                               0
vin#branch                                   0
vdd#branch                        -3.36329e-12

 Reference value :  8.27244e-08
 Reference value :  1.86033e-07
 Reference value :  2.78636e-07
No. of Data Rows : 68030

  Measurements for Transient Analysis

tphl                =  5.20702e-09 targ=  3.11705e-08 trig=  2.59634e-08
tplh                =  1.47993e-08 targ=  1.14690e-07 trig=  9.98903e-08
i_vdd_avg           =  -9.97189e-07 from=  1.00000e-08 to=  3.30001e-07
power_avg_uw        =  1.66695e+00


Total analysis time (seconds) = 1.1598

Total elapsed time (seconds) = 1.219 

Total DRAM available = 16384.000 MB.
DRAM currently available =  111.328 MB.
Maximum ngspice program size =   13.953 MB.
Current ngspice program size =   13.953 MB.

