
Note: No compatibility mode selected!


Circuit: GF180MCU library cell nand3_4 A1_to_ZN__A2=1,A3=1

Doing analysis at TEMP = -7.994243 and TNOM = 27.000000

Using SPARSE 1.3 as Direct Linear Solver

Initial Transient Solution
--------------------------

Node                                   Voltage
----                                   -------
vdd                                    1.70926
a1                                           0
a2                                     1.70926
a3                                     1.70926
xu1.net_1_3                        3.05824e-13
xu1.net_0                           6.1164e-13
xu1.net_1_2                         3.0584e-13
xu1.net_1_1                        3.05824e-13
xu1.net_1_0                        3.05825e-13
xu1.net_0_0                        6.11649e-13
zn                                     1.70926
vfix_a3#branch                               0
vfix_a2#branch                               0
vin#branch                                   0
vdd#branch                        -6.87721e-12

 Reference value :  2.35464e-08
 Reference value :  5.42293e-08
 Reference value :  8.27843e-08
 Reference value :  1.13096e-07
 Reference value :  1.44851e-07
 Reference value :  1.74421e-07
 Reference value :  2.05654e-07
 Reference value :  2.38154e-07
 Reference value :  2.68086e-07
 Reference value :  2.99971e-07
 Reference value :  3.30306e-07
No. of Data Rows : 68030

  Measurements for Transient Analysis

tphl                =  4.03049e-09 targ=  3.09439e-08 trig=  2.69134e-08
tplh                =  5.24513e-09 targ=  1.07985e-07 trig=  1.02740e-07
i_vdd_avg           =  -1.73051e-06 from=  1.00000e-08 to=  3.30001e-07
power_avg_uw        =  2.95790e+00


Total analysis time (seconds) = 3.61717

Total elapsed time (seconds) = 3.694 

Total DRAM available = 16384.000 MB.
DRAM currently available =   96.062 MB.
Maximum ngspice program size =   18.703 MB.
Current ngspice program size =   18.703 MB.

