
Note: No compatibility mode selected!


Circuit: GF180MCU library cell xor2_4 A1_to_Z__A2=0

Doing analysis at TEMP = 49.669587 and TNOM = 27.000000

Using SPARSE 1.3 as Direct Linear Solver

Initial Transient Solution
--------------------------

Node                                   Voltage
----                                   -------
vdd                                    1.93298
a1                                           0
a2                                           0
xu1.net_2                            0.0152608
xu1.i                                  1.93298
xu1.net_0                          1.69294e-10
xu1.z_neg                              1.93298
z                                  1.55256e-08
xu1.net_1                              1.93298
vfix_a2#branch                               0
vin#branch                                   0
vdd#branch                        -1.39996e-11

 Reference value :  2.59704e-08
 Reference value :  6.77604e-08
 Reference value :  1.08413e-07
 Reference value :  1.52763e-07
 Reference value :  1.95085e-07
 Reference value :  2.35745e-07
 Reference value :  2.78688e-07
 Reference value :  3.18983e-07
No. of Data Rows : 68034

  Measurements for Transient Analysis

tplh                =  9.17930e-10 targ=  2.50194e-08 trig=  2.41015e-08
tphl                =  1.93677e-09 targ=  9.62411e-08 trig=  9.43044e-08
i_vdd_avg           =  -2.85557e-07 from=  1.00000e-08 to=  3.30003e-07
power_avg_uw        =  5.51977e-01


Total analysis time (seconds) = 2.62176

Total elapsed time (seconds) = 2.714 

Total DRAM available = 16384.000 MB.
DRAM currently available =  128.172 MB.
Maximum ngspice program size =   17.984 MB.
Current ngspice program size =   17.984 MB.

