
Note: No compatibility mode selected!


Circuit: GF180MCU library cell inv_4 I_to_ZN

Doing analysis at TEMP = 45.310055 and TNOM = 27.000000

Using SPARSE 1.3 as Direct Linear Solver

Initial Transient Solution
--------------------------

Node                                   Voltage
----                                   -------
vdd                                    1.75576
i                                            0
zn                                     1.75576
vin#branch                                   0
vdd#branch                        -7.69263e-12

 Reference value :  7.03346e-08
 Reference value :  1.69447e-07
 Reference value :  2.67805e-07
No. of Data Rows : 68030

  Measurements for Transient Analysis

tphl                =  2.25671e-09 targ=  3.09628e-08 trig=  2.87060e-08
tplh                =  4.21836e-09 targ=  1.12336e-07 trig=  1.08118e-07
i_vdd_avg           =  -1.81438e-06 from=  1.00000e-08 to=  3.30002e-07
power_avg_uw        =  3.18563e+00


Total analysis time (seconds) = 1.09167

Total elapsed time (seconds) = 1.177 

Total DRAM available = 16384.000 MB.
DRAM currently available =  106.781 MB.
Maximum ngspice program size =   18.484 MB.
Current ngspice program size =   18.484 MB.

