
Note: No compatibility mode selected!


Circuit: GF180MCU library cell oai21_4 A1_to_ZN__A2=0,B=1

Doing analysis at TEMP = 25.568373 and TNOM = 27.000000

Using SPARSE 1.3 as Direct Linear Solver

Initial Transient Solution
--------------------------

Node                                   Voltage
----                                   -------
vdd                                    1.62861
a1                                           0
a2                                           0
b                                      1.62861
zn                                     1.62861
xu1.net_0                          9.13505e-09
xu1.net_1_0                            1.62861
xu1.net_1_1                            1.62861
xu1.net_1_2                            1.62861
xu1.net_1_3                            1.62861
vfix_b#branch                                0
vfix_a2#branch                               0
vin#branch                                   0
vdd#branch                        -2.07397e-11

 Reference value :  2.54325e-08
 Reference value :  5.62107e-08
 Reference value :  8.84957e-08
 Reference value :  1.18459e-07
 Reference value :  1.47659e-07
 Reference value :  1.79269e-07
 Reference value :  2.10801e-07
 Reference value :  2.42221e-07
 Reference value :  2.73254e-07
 Reference value :  3.05279e-07
 Reference value :  3.36164e-07
No. of Data Rows : 68034

  Measurements for Transient Analysis

tphl                =  1.58211e-09 targ=  2.87987e-08 trig=  2.72166e-08
tplh                =  3.55475e-09 targ=  1.07204e-07 trig=  1.03650e-07
i_vdd_avg           =  -1.34320e-06 from=  1.00000e-08 to=  3.30004e-07
power_avg_uw        =  2.18754e+00


Total analysis time (seconds) = 3.46744

Total elapsed time (seconds) = 3.530 

Total DRAM available = 16384.000 MB.
DRAM currently available =   83.031 MB.
Maximum ngspice program size =   14.922 MB.
Current ngspice program size =   14.922 MB.

