
Note: No compatibility mode selected!


Circuit: GF180MCU library cell nand3_1 A1_to_ZN__A2=1,A3=1

Doing analysis at TEMP = 57.640178 and TNOM = 27.000000

Using SPARSE 1.3 as Direct Linear Solver

Initial Transient Solution
--------------------------

Node                                   Voltage
----                                   -------
vdd                                    1.71896
a1                                           0
a2                                     1.71896
a3                                     1.71896
xu1.net_1                          2.41268e-09
xu1.net_0                          4.82536e-09
zn                                     1.71896
vfix_a3#branch                               0
vfix_a2#branch                               0
vin#branch                                   0
vdd#branch                        -2.09666e-12

 Reference value :  7.45621e-08
 Reference value :  1.71667e-07
 Reference value :  2.68757e-07
No. of Data Rows : 68032

  Measurements for Transient Analysis

tphl                =  3.47083e-09 targ=  3.23631e-08 trig=  2.88923e-08
tplh                =  4.73690e-09 targ=  1.13414e-07 trig=  1.08677e-07
i_vdd_avg           =  -4.23132e-07 from=  1.00000e-08 to=  3.30002e-07
power_avg_uw        =  7.27347e-01


Total analysis time (seconds) = 1.09401

Total elapsed time (seconds) = 1.164 

Total DRAM available = 16384.000 MB.
DRAM currently available =  141.688 MB.
Maximum ngspice program size =   15.641 MB.
Current ngspice program size =   15.641 MB.

