
Note: No compatibility mode selected!


Circuit: GF180MCU library cell inv_1 I_to_ZN

Doing analysis at TEMP = 89.510816 and TNOM = 27.000000

Using SPARSE 1.3 as Direct Linear Solver

Initial Transient Solution
--------------------------

Node                                   Voltage
----                                   -------
vdd                                    1.97192
i                                            0
zn                                     1.97192
vin#branch                                   0
vdd#branch                        -5.35371e-11

 Reference value :  1.71610e-07
No. of Data Rows : 68030

  Measurements for Transient Analysis

tphl                =  4.70819e-10 targ=  2.47490e-08 trig=  2.42782e-08
tplh                =  9.00722e-10 targ=  9.57354e-08 trig=  9.48347e-08
i_vdd_avg           =  -4.64600e-07 from=  1.00000e-08 to=  3.30000e-07
power_avg_uw        =  9.16154e-01


Total analysis time (seconds) = 0.49813

Total elapsed time (seconds) = 0.609 

Total DRAM available = 16384.000 MB.
DRAM currently available =  145.141 MB.
Maximum ngspice program size =   17.984 MB.
Current ngspice program size =   17.984 MB.

