
Note: No compatibility mode selected!


Circuit: GF180MCU library cell nand2_4 A1_to_ZN__A2=1

Doing analysis at TEMP = -39.869427 and TNOM = 27.000000

Using SPARSE 1.3 as Direct Linear Solver

Initial Transient Solution
--------------------------

Node                                   Voltage
----                                   -------
vdd                                    1.78977
a1                                           0
a2                                     1.78977
xu1.net_0_0                        3.79974e-15
zn                                     1.78977
xu1.net_0_1                        2.02931e-15
xu1.net_0_2                        3.79974e-15
xu1.net_0_3                        2.02931e-15
vfix_a2#branch                               0
vin#branch                                   0
vdd#branch                        -7.19909e-12

 Reference value :  3.41033e-08
 Reference value :  8.81433e-08
 Reference value :  1.38149e-07
 Reference value :  1.89098e-07
 Reference value :  2.40288e-07
 Reference value :  2.94479e-07
No. of Data Rows : 68032

  Measurements for Transient Analysis

tphl                =  2.93385e-09 targ=  2.88442e-08 trig=  2.59104e-08
tplh                =  4.31518e-09 targ=  1.04046e-07 trig=  9.97312e-08
i_vdd_avg           =  -2.34323e-06 from=  1.00000e-08 to=  3.30004e-07
power_avg_uw        =  4.19384e+00


Total analysis time (seconds) = 2.08432

Total elapsed time (seconds) = 2.154 

Total DRAM available = 16384.000 MB.
DRAM currently available =   94.016 MB.
Maximum ngspice program size =   18.641 MB.
Current ngspice program size =   18.641 MB.

