
Note: No compatibility mode selected!


Circuit: GF180MCU library cell inv_1 I_to_ZN

Doing analysis at TEMP = 77.370603 and TNOM = 27.000000

Using SPARSE 1.3 as Direct Linear Solver

Initial Transient Solution
--------------------------

Node                                   Voltage
----                                   -------
vdd                                    1.79108
i                                            0
zn                                     1.79108
vin#branch                                   0
vdd#branch                        -1.87957e-12

 Reference value :  2.12981e-07
No. of Data Rows : 68034

  Measurements for Transient Analysis

tphl                =  4.23119e-09 targ=  3.11153e-08 trig=  2.68841e-08
tplh                =  8.54839e-09 targ=  1.11201e-07 trig=  1.02652e-07
i_vdd_avg           =  -1.28816e-06 from=  1.00000e-08 to=  3.30004e-07
power_avg_uw        =  2.30719e+00


Total analysis time (seconds) = 0.494317

Total elapsed time (seconds) = 0.565 

Total DRAM available = 16384.000 MB.
DRAM currently available =  145.141 MB.
Maximum ngspice program size =   17.812 MB.
Current ngspice program size =   17.812 MB.

