
Note: No compatibility mode selected!


Circuit: GF180MCU library cell nand2_4 A1_to_ZN__A2=1

Doing analysis at TEMP = 100.593380 and TNOM = 27.000000

Using SPARSE 1.3 as Direct Linear Solver

Initial Transient Solution
--------------------------

Node                                   Voltage
----                                   -------
vdd                                    1.62697
a1                                           0
a2                                     1.62697
xu1.net_0_0                        3.59752e-08
zn                                     1.62697
xu1.net_0_1                        3.59752e-08
xu1.net_0_2                        3.59752e-08
xu1.net_0_3                        3.59752e-08
vfix_a2#branch                               0
vin#branch                                   0
vdd#branch                        -2.49454e-11

 Reference value :  3.01699e-08
 Reference value :  7.54799e-08
 Reference value :  1.26327e-07
 Reference value :  1.76912e-07
 Reference value :  2.27780e-07
 Reference value :  2.73857e-07
 Reference value :  3.20182e-07
No. of Data Rows : 68030

  Measurements for Transient Analysis

tphl                =  3.93909e-10 targ=  2.51201e-08 trig=  2.47262e-08
tplh                =  5.96683e-10 targ=  9.67753e-08 trig=  9.61786e-08
i_vdd_avg           =  -1.58455e-07 from=  1.00000e-08 to=  3.30002e-07
power_avg_uw        =  2.57803e-01


Total analysis time (seconds) = 2.26868

Total elapsed time (seconds) = 2.336 

Total DRAM available = 16384.000 MB.
DRAM currently available =  167.062 MB.
Maximum ngspice program size =   15.906 MB.
Current ngspice program size =   15.906 MB.

