
Note: No compatibility mode selected!


Circuit: GF180MCU library cell inv_4 I_to_ZN

Doing analysis at TEMP = 118.059700 and TNOM = 27.000000

Using SPARSE 1.3 as Direct Linear Solver

Initial Transient Solution
--------------------------

Node                                   Voltage
----                                   -------
vdd                                    1.73396
i                                            0
zn                                     1.73396
vin#branch                                   0
vdd#branch                        -1.05204e-11

 Reference value :  7.83304e-08
 Reference value :  1.72938e-07
 Reference value :  2.74213e-07
No. of Data Rows : 68034

  Measurements for Transient Analysis

tphl                =  1.34570e-09 targ=  2.90971e-08 trig=  2.77514e-08
tplh                =  2.63603e-09 targ=  1.07890e-07 trig=  1.05254e-07
i_vdd_avg           =  -3.86543e-07 from=  1.00000e-08 to=  3.30003e-07
power_avg_uw        =  6.70251e-01


Total analysis time (seconds) = 1.1342

Total elapsed time (seconds) = 1.184 

Total DRAM available = 16384.000 MB.
DRAM currently available =  109.328 MB.
Maximum ngspice program size =   16.734 MB.
Current ngspice program size =   16.734 MB.

