
Note: No compatibility mode selected!


Circuit: GF180MCU library cell inv_1 I_to_ZN

Doing analysis at TEMP = -28.451296 and TNOM = 27.000000

Using SPARSE 1.3 as Direct Linear Solver

Initial Transient Solution
--------------------------

Node                                   Voltage
----                                   -------
vdd                                    1.74134
i                                            0
zn                                     1.74134
vin#branch                                   0
vdd#branch                        -1.75134e-12

 Reference value :  1.96821e-07
No. of Data Rows : 68034

  Measurements for Transient Analysis

tphl                =  4.04993e-09 targ=  3.31692e-08 trig=  2.91192e-08
tplh                =  6.64970e-09 targ=  1.16007e-07 trig=  1.09358e-07
i_vdd_avg           =  -5.73193e-07 from=  1.00000e-08 to=  3.30004e-07
power_avg_uw        =  9.98124e-01


Total analysis time (seconds) = 0.409001

Total elapsed time (seconds) = 0.487 

Total DRAM available = 16384.000 MB.
DRAM currently available =  109.594 MB.
Maximum ngspice program size =   19.734 MB.
Current ngspice program size =   19.734 MB.

