
Note: No compatibility mode selected!


Circuit: GF180MCU library cell aoi21_1 A1_to_ZN__A2=1,B=0

Doing analysis at TEMP = -4.374375 and TNOM = 27.000000

Using SPARSE 1.3 as Direct Linear Solver

Initial Transient Solution
--------------------------

Node                                   Voltage
----                                   -------
vdd                                    1.84291
a1                                           0
a2                                     1.84291
b                                            0
xu1.net_0                          3.59399e-10
zn                                     1.84291
xu1.net_1                              1.84291
vfix_b#branch                                0
vfix_a2#branch                               0
vin#branch                                   0
vdd#branch                        -3.91825e-12

 Reference value :  7.02071e-08
 Reference value :  1.72317e-07
 Reference value :  2.80497e-07
No. of Data Rows : 68032

  Measurements for Transient Analysis

tphl                =  3.13052e-09 targ=  2.88428e-08 trig=  2.57123e-08
tplh                =  7.27383e-09 targ=  1.06411e-07 trig=  9.91369e-08
i_vdd_avg           =  -1.86363e-06 from=  1.00000e-08 to=  3.30002e-07
power_avg_uw        =  3.43451e+00


Total analysis time (seconds) = 1.00871

Total elapsed time (seconds) = 1.083 

Total DRAM available = 16384.000 MB.
DRAM currently available =  140.844 MB.
Maximum ngspice program size =   14.438 MB.
Current ngspice program size =   14.438 MB.

