
Note: No compatibility mode selected!


Circuit: GF180MCU library cell inv_4 I_to_ZN

Doing analysis at TEMP = 50.198396 and TNOM = 27.000000

Using SPARSE 1.3 as Direct Linear Solver

Initial Transient Solution
--------------------------

Node                                   Voltage
----                                   -------
vdd                                    1.97166
i                                            0
zn                                     1.97166
vin#branch                                   0
vdd#branch                        -7.97333e-12

 Reference value :  1.00850e-07
 Reference value :  2.05230e-07
 Reference value :  3.10392e-07
No. of Data Rows : 68030

  Measurements for Transient Analysis

tphl                =  2.80467e-09 targ=  3.07382e-08 trig=  2.79335e-08
tplh                =  4.65329e-09 targ=  1.10454e-07 trig=  1.05801e-07
i_vdd_avg           =  -2.44423e-06 from=  1.00000e-08 to=  3.30002e-07
power_avg_uw        =  4.81918e+00


Total analysis time (seconds) = 0.941983

Total elapsed time (seconds) = 0.988 

Total DRAM available = 16384.000 MB.
DRAM currently available =  126.062 MB.
Maximum ngspice program size =   12.781 MB.
Current ngspice program size =   12.672 MB.

