
Note: No compatibility mode selected!


Circuit: GF180MCU library cell oai21_4 A1_to_ZN__A2=0,B=1

Doing analysis at TEMP = 13.369330 and TNOM = 27.000000

Using SPARSE 1.3 as Direct Linear Solver

Initial Transient Solution
--------------------------

Node                                   Voltage
----                                   -------
vdd                                    1.96563
a1                                           0
a2                                           0
b                                      1.96563
zn                                     1.96563
xu1.net_0                          1.26892e-10
xu1.net_1_0                            1.96563
xu1.net_1_1                            1.96563
xu1.net_1_2                            1.96563
xu1.net_1_3                            1.96563
vfix_b#branch                                0
vfix_a2#branch                               0
vin#branch                                   0
vdd#branch                        -1.59091e-11

 Reference value :  2.12514e-08
 Reference value :  5.08275e-08
 Reference value :  8.04425e-08
 Reference value :  1.11258e-07
 Reference value :  1.39213e-07
 Reference value :  1.71308e-07
 Reference value :  2.01903e-07
 Reference value :  2.32248e-07
 Reference value :  2.64548e-07
 Reference value :  2.94088e-07
 Reference value :  3.24883e-07
No. of Data Rows : 68032

  Measurements for Transient Analysis

tphl                =  9.67171e-10 targ=  2.51197e-08 trig=  2.41525e-08
tplh                =  2.73993e-09 targ=  9.71975e-08 trig=  9.44575e-08
i_vdd_avg           =  -2.07554e-06 from=  1.00000e-08 to=  3.30003e-07
power_avg_uw        =  4.07974e+00


Total analysis time (seconds) = 3.58933

Total elapsed time (seconds) = 3.648 

Total DRAM available = 16384.000 MB.
DRAM currently available =   96.375 MB.
Maximum ngspice program size =   12.578 MB.
Current ngspice program size =   12.484 MB.

