
Note: No compatibility mode selected!


Circuit: GF180MCU library cell mux2_4 I0_to_Z__I1=0,S=0

Doing analysis at TEMP = 104.544420 and TNOM = 27.000000

Using SPARSE 1.3 as Direct Linear Solver

Initial Transient Solution
--------------------------

Node                                   Voltage
----                                   -------
vdd                                    1.70616
i0                                           0
i1                                           0
s                                            0
xu1.int04                              1.70616
z                                  1.42551e-08
xu1.net_1                            0.0445311
xu1.net_3                              1.23422
xu1.sel1_n                             1.70616
xu1.net_0                              1.70616
xu1.net_2                              1.70616
vfix_s#branch                                0
vfix_i1#branch                               0
vin#branch                                   0
vdd#branch                        -2.72825e-11

 Reference value :  3.00225e-08
 Reference value :  6.71873e-08
 Reference value :  1.07242e-07
 Reference value :  1.48267e-07
 Reference value :  1.86088e-07
 Reference value :  2.22137e-07
 Reference value :  2.60242e-07
 Reference value :  3.00122e-07
No. of Data Rows : 68032

  Measurements for Transient Analysis

tplh                =  3.68347e-09 targ=  3.22084e-08 trig=  2.85249e-08
tphl                =  4.56801e-09 targ=  1.12143e-07 trig=  1.07575e-07
i_vdd_avg           =  -2.11117e-06 from=  1.00000e-08 to=  3.30002e-07
power_avg_uw        =  3.60200e+00


Total analysis time (seconds) = 2.78749

Total elapsed time (seconds) = 2.849 

Total DRAM available = 16384.000 MB.
DRAM currently available =   82.281 MB.
Maximum ngspice program size =   12.781 MB.
Current ngspice program size =   12.672 MB.

