
Note: No compatibility mode selected!


Circuit: GF180MCU library cell nand3_1 A1_to_ZN__A2=1,A3=1

Doing analysis at TEMP = 29.753502 and TNOM = 27.000000

Using SPARSE 1.3 as Direct Linear Solver

Initial Transient Solution
--------------------------

Node                                   Voltage
----                                   -------
vdd                                    1.86547
a1                                           0
a2                                     1.86547
a3                                     1.86547
xu1.net_1                          2.74657e-10
xu1.net_0                          5.49314e-10
zn                                     1.86547
vfix_a3#branch                               0
vfix_a2#branch                               0
vin#branch                                   0
vdd#branch                        -1.92569e-12

 Reference value :  7.92296e-08
 Reference value :  1.80417e-07
 Reference value :  2.77967e-07
No. of Data Rows : 68030

  Measurements for Transient Analysis

tphl                =  7.30272e-09 targ=  3.26613e-08 trig=  2.53586e-08
tplh                =  8.47743e-09 targ=  1.06553e-07 trig=  9.80757e-08
i_vdd_avg           =  -2.30649e-06 from=  1.00000e-08 to=  3.30002e-07
power_avg_uw        =  4.30269e+00


Total analysis time (seconds) = 1.07272

Total elapsed time (seconds) = 1.139 

Total DRAM available = 16384.000 MB.
DRAM currently available =   92.438 MB.
Maximum ngspice program size =   16.125 MB.
Current ngspice program size =   16.125 MB.

