
Note: No compatibility mode selected!


Circuit: GF180MCU library cell inv_1 I_to_ZN

Doing analysis at TEMP = 122.516960 and TNOM = 27.000000

Using SPARSE 1.3 as Direct Linear Solver

Initial Transient Solution
--------------------------

Node                                   Voltage
----                                   -------
vdd                                    1.87378
i                                            0
zn                                     1.87377
vin#branch                                   0
vdd#branch                        -2.19492e-10

 Reference value :  1.81168e-07
No. of Data Rows : 68034

  Measurements for Transient Analysis

tphl                =  3.27147e-09 targ=  3.29554e-08 trig=  2.96839e-08
tplh                =  6.03933e-09 targ=  1.17091e-07 trig=  1.11052e-07
i_vdd_avg           =  -1.77589e-06 from=  1.00000e-08 to=  3.30003e-07
power_avg_uw        =  3.32762e+00


Total analysis time (seconds) = 0.471309

Total elapsed time (seconds) = 0.549 

Total DRAM available = 16384.000 MB.
DRAM currently available =  126.141 MB.
Maximum ngspice program size =   17.922 MB.
Current ngspice program size =   17.922 MB.

