
Note: No compatibility mode selected!


Circuit: GF180MCU library cell aoi21_4 A1_to_ZN__A2=1,B=0

Doing analysis at TEMP = -24.810078 and TNOM = 27.000000

Using SPARSE 1.3 as Direct Linear Solver

Initial Transient Solution
--------------------------

Node                                   Voltage
----                                   -------
vdd                                     1.6906
a1                                           0
a2                                      1.6906
b                                            0
xu1.net_0_0                        1.14195e-12
zn                                      1.6906
xu1.net_0_1                        1.14016e-12
xu1.net_0_2                        1.14195e-12
xu1.net_0_3                        1.14016e-12
xu1.net_1                               1.6906
vfix_b#branch                                0
vfix_a2#branch                               0
vin#branch                                   0
vdd#branch                        -1.36069e-11

 Reference value :  1.87864e-08
 Reference value :  5.07780e-08
 Reference value :  8.30180e-08
 Reference value :  1.13538e-07
 Reference value :  1.44978e-07
 Reference value :  1.75708e-07
 Reference value :  2.05733e-07
 Reference value :  2.34533e-07
 Reference value :  2.62703e-07
 Reference value :  2.93448e-07
 Reference value :  3.25558e-07
No. of Data Rows : 68032

  Measurements for Transient Analysis

tphl                =  1.94771e-09 targ=  3.08154e-08 trig=  2.88677e-08
tplh                =  4.10756e-09 targ=  1.12711e-07 trig=  1.08603e-07
i_vdd_avg           =  -7.17302e-07 from=  1.00000e-08 to=  3.30003e-07
power_avg_uw        =  1.21267e+00


Total analysis time (seconds) = 3.66565

Total elapsed time (seconds) = 3.727 

Total DRAM available = 16384.000 MB.
DRAM currently available =  130.188 MB.
Maximum ngspice program size =   15.953 MB.
Current ngspice program size =   15.953 MB.

