
Note: No compatibility mode selected!


Circuit: GF180MCU library cell nand2_1 A1_to_ZN__A2=1

Doing analysis at TEMP = 84.297587 and TNOM = 27.000000

Using SPARSE 1.3 as Direct Linear Solver

Initial Transient Solution
--------------------------

Node                                   Voltage
----                                   -------
vdd                                    1.74067
a1                                           0
a2                                     1.74067
xu1.net_0                          1.35662e-08
zn                                     1.74067
vfix_a2#branch                               0
vin#branch                                   0
vdd#branch                        -3.71798e-12

 Reference value :  1.17950e-07
 Reference value :  2.82240e-07
No. of Data Rows : 68032

  Measurements for Transient Analysis

tphl                =  6.57102e-09 targ=  3.52366e-08 trig=  2.86656e-08
tplh                =  9.13264e-09 targ=  1.17129e-07 trig=  1.07997e-07
i_vdd_avg           =  -1.72862e-06 from=  1.00000e-08 to=  3.30005e-07
power_avg_uw        =  3.00897e+00


Total analysis time (seconds) = 0.710856

Total elapsed time (seconds) = 0.776 

Total DRAM available = 16384.000 MB.
DRAM currently available =  124.516 MB.
Maximum ngspice program size =   18.031 MB.
Current ngspice program size =   18.031 MB.

