
Note: No compatibility mode selected!


Circuit: GF180MCU library cell mux2_1 I0_to_Z__I1=0,S=0

Doing analysis at TEMP = 121.173000 and TNOM = 27.000000

Using SPARSE 1.3 as Direct Linear Solver

Initial Transient Solution
--------------------------

Node                                   Voltage
----                                   -------
vdd                                    1.66708
i0                                           0
i1                                           0
s                                            0
xu1.int04                              1.66708
z                                  2.00725e-08
xu1.net_1                            0.0406238
xu1.net_3                              1.21387
xu1.sel1_n                             1.66708
xu1.net_0                              1.66708
xu1.net_2                              1.66708
vfix_s#branch                                0
vfix_i1#branch                               0
vin#branch                                   0
vdd#branch                        -1.94028e-11

 Reference value :  4.65037e-08
 Reference value :  1.04559e-07
 Reference value :  1.58245e-07
 Reference value :  2.15649e-07
 Reference value :  2.68120e-07
 Reference value :  3.27695e-07
No. of Data Rows : 68032

  Measurements for Transient Analysis

tplh                =  1.46978e-08 targ=  4.14559e-08 trig=  2.67581e-08
tphl                =  8.86797e-09 targ=  1.11142e-07 trig=  1.02274e-07
i_vdd_avg           =  -1.97987e-06 from=  1.00000e-08 to=  3.30005e-07
power_avg_uw        =  3.30060e+00


Total analysis time (seconds) = 1.92388

Total elapsed time (seconds) = 1.984 

Total DRAM available = 16384.000 MB.
DRAM currently available =  119.922 MB.
Maximum ngspice program size =   15.375 MB.
Current ngspice program size =   15.375 MB.

