
Note: No compatibility mode selected!


Circuit: GF180MCU library cell nand2_4 A1_to_ZN__A2=1

Doing analysis at TEMP = -23.225557 and TNOM = 27.000000

Using SPARSE 1.3 as Direct Linear Solver

Initial Transient Solution
--------------------------

Node                                   Voltage
----                                   -------
vdd                                    1.95355
a1                                           0
a2                                     1.95355
xu1.net_0_0                        1.29192e-12
zn                                     1.95355
xu1.net_0_1                        1.29158e-12
xu1.net_0_2                        1.29192e-12
xu1.net_0_3                        1.29158e-12
vfix_a2#branch                               0
vin#branch                                   0
vdd#branch                        -7.85537e-12

 Reference value :  3.17232e-08
 Reference value :  8.20132e-08
 Reference value :  1.35764e-07
 Reference value :  1.87643e-07
 Reference value :  2.39183e-07
 Reference value :  2.89809e-07
 Reference value :  3.37134e-07
No. of Data Rows : 68032

  Measurements for Transient Analysis

tphl                =  9.43668e-10 targ=  2.85840e-08 trig=  2.76404e-08
tplh                =  2.00402e-09 targ=  1.06925e-07 trig=  1.04921e-07
i_vdd_avg           =  -6.40075e-07 from=  1.00000e-08 to=  3.30004e-07
power_avg_uw        =  1.25042e+00


Total analysis time (seconds) = 2.29965

Total elapsed time (seconds) = 2.385 

Total DRAM available = 16384.000 MB.
DRAM currently available =  111.484 MB.
Maximum ngspice program size =   16.641 MB.
Current ngspice program size =   16.641 MB.

