
Note: No compatibility mode selected!


Circuit: GF180MCU library cell inv_4 I_to_ZN

Doing analysis at TEMP = 54.160909 and TNOM = 27.000000

Using SPARSE 1.3 as Direct Linear Solver

Initial Transient Solution
--------------------------

Node                                   Voltage
----                                   -------
vdd                                    1.63449
i                                            0
zn                                     1.63449
vin#branch                                   0
vdd#branch                        -7.69162e-12

 Reference value :  7.54476e-08
 Reference value :  1.72253e-07
 Reference value :  2.81333e-07
No. of Data Rows : 68032

  Measurements for Transient Analysis

tphl                =  3.80962e-10 targ=  2.50160e-08 trig=  2.46350e-08
tplh                =  6.55578e-10 targ=  9.65607e-08 trig=  9.59051e-08
i_vdd_avg           =  -2.49867e-07 from=  1.00000e-08 to=  3.30003e-07
power_avg_uw        =  4.08404e-01


Total analysis time (seconds) = 1.10349

Total elapsed time (seconds) = 1.169 

Total DRAM available = 16384.000 MB.
DRAM currently available =  109.328 MB.
Maximum ngspice program size =   18.094 MB.
Current ngspice program size =   18.094 MB.

