
Note: No compatibility mode selected!


Circuit: GF180MCU library cell nand3_1 A1_to_ZN__A2=1,A3=1

Doing analysis at TEMP = 90.693799 and TNOM = 27.000000

Using SPARSE 1.3 as Direct Linear Solver

Initial Transient Solution
--------------------------

Node                                   Voltage
----                                   -------
vdd                                    1.81914
a1                                           0
a2                                     1.81914
a3                                     1.81914
xu1.net_1                          1.94144e-08
xu1.net_0                          3.88288e-08
zn                                     1.81914
vfix_a3#branch                               0
vfix_a2#branch                               0
vin#branch                                   0
vdd#branch                        -4.75964e-12

 Reference value :  9.06792e-08
 Reference value :  1.94654e-07
 Reference value :  2.89051e-07
No. of Data Rows : 68030

  Measurements for Transient Analysis

tphl                =  5.16469e-09 targ=  3.43855e-08 trig=  2.92208e-08
tplh                =  6.41147e-09 targ=  1.16074e-07 trig=  1.09662e-07
i_vdd_avg           =  -9.28016e-07 from=  1.00000e-08 to=  3.30001e-07
power_avg_uw        =  1.68819e+00


Total analysis time (seconds) = 1.04482

Total elapsed time (seconds) = 1.111 

Total DRAM available = 16384.000 MB.
DRAM currently available =  153.734 MB.
Maximum ngspice program size =   16.312 MB.
Current ngspice program size =   16.312 MB.

