
Note: No compatibility mode selected!


Circuit: GF180MCU library cell aoi21_4 A1_to_ZN__A2=1,B=0

Doing analysis at TEMP = -5.005621 and TNOM = 27.000000

Using SPARSE 1.3 as Direct Linear Solver

Initial Transient Solution
--------------------------

Node                                   Voltage
----                                   -------
vdd                                    1.71903
a1                                           0
a2                                     1.71903
b                                            0
xu1.net_0_0                        4.34159e-13
zn                                     1.71903
xu1.net_0_1                        4.34024e-13
xu1.net_0_2                        4.34159e-13
xu1.net_0_3                        4.34024e-13
xu1.net_1                              1.71903
vfix_b#branch                                0
vfix_a2#branch                               0
vin#branch                                   0
vdd#branch                        -1.38328e-11

 Reference value :  3.06986e-08
 Reference value :  6.34736e-08
 Reference value :  9.56136e-08
 Reference value :  1.26540e-07
 Reference value :  1.57995e-07
 Reference value :  1.89739e-07
 Reference value :  2.22874e-07
 Reference value :  2.50629e-07
 Reference value :  2.80465e-07
 Reference value :  3.12615e-07
No. of Data Rows : 68032

  Measurements for Transient Analysis

tphl                =  1.54316e-09 targ=  2.71937e-08 trig=  2.56505e-08
tplh                =  3.05164e-09 targ=  1.02003e-07 trig=  9.89516e-08
i_vdd_avg           =  -6.33953e-07 from=  1.00000e-08 to=  3.30005e-07
power_avg_uw        =  1.08978e+00


Total analysis time (seconds) = 3.31043

Total elapsed time (seconds) = 3.369 

Total DRAM available = 16384.000 MB.
DRAM currently available =  132.094 MB.
Maximum ngspice program size =   14.609 MB.
Current ngspice program size =   14.609 MB.

