
Note: No compatibility mode selected!


Circuit: GF180MCU library cell oai21_4 A1_to_ZN__A2=0,B=1

Doing analysis at TEMP = 122.244560 and TNOM = 27.000000

Using SPARSE 1.3 as Direct Linear Solver

Initial Transient Solution
--------------------------

Node                                   Voltage
----                                   -------
vdd                                    1.84981
a1                                           0
a2                                           0
b                                      1.84981
zn                                      1.8498
xu1.net_0                          2.23722e-06
xu1.net_1_0                            1.84981
xu1.net_1_1                            1.84981
xu1.net_1_2                            1.84981
xu1.net_1_3                            1.84981
vfix_b#branch                                0
vfix_a2#branch                               0
vin#branch                                   0
vdd#branch                        -1.71774e-09

 Reference value :  2.28514e-08
 Reference value :  5.17045e-08
 Reference value :  8.20495e-08
 Reference value :  1.11161e-07
 Reference value :  1.39311e-07
 Reference value :  1.70461e-07
 Reference value :  2.02309e-07
 Reference value :  2.32674e-07
 Reference value :  2.64601e-07
 Reference value :  2.95531e-07
 Reference value :  3.26441e-07
No. of Data Rows : 68030

  Measurements for Transient Analysis

tphl                =  -3.66993e-11 targ=  2.63918e-08 trig=  2.64285e-08
tplh                =  9.99969e-10 targ=  1.02285e-07 trig=  1.01285e-07
i_vdd_avg           =  -3.86748e-07 from=  1.00000e-08 to=  3.30001e-07
power_avg_uw        =  7.15412e-01


Total analysis time (seconds) = 3.58888

Total elapsed time (seconds) = 3.656 

Total DRAM available = 16384.000 MB.
DRAM currently available =   80.750 MB.
Maximum ngspice program size =   14.422 MB.
Current ngspice program size =   14.422 MB.

