
Note: No compatibility mode selected!


Circuit: GF180MCU library cell nand3_1 A1_to_ZN__A2=1,A3=1

Doing analysis at TEMP = 52.552175 and TNOM = 27.000000

Using SPARSE 1.3 as Direct Linear Solver

Initial Transient Solution
--------------------------

Node                                   Voltage
----                                   -------
vdd                                    1.73151
a1                                           0
a2                                     1.73151
a3                                     1.73151
xu1.net_1                          1.16249e-10
xu1.net_0                          2.32499e-10
zn                                     1.73151
vfix_a3#branch                               0
vfix_a2#branch                               0
vin#branch                                   0
vdd#branch                        -1.75428e-12

 Reference value :  6.79691e-08
 Reference value :  1.69646e-07
 Reference value :  2.69079e-07
No. of Data Rows : 68030

  Measurements for Transient Analysis

tphl                =  1.31560e-08 targ=  4.16093e-08 trig=  2.84533e-08
tplh                =  1.62508e-08 targ=  1.23611e-07 trig=  1.07360e-07
i_vdd_avg           =  -1.81739e-06 from=  1.00000e-08 to=  3.30001e-07
power_avg_uw        =  3.14682e+00


Total analysis time (seconds) = 1.11194

Total elapsed time (seconds) = 1.182 

Total DRAM available = 16384.000 MB.
DRAM currently available =   98.000 MB.
Maximum ngspice program size =   14.750 MB.
Current ngspice program size =   14.750 MB.

