
Note: No compatibility mode selected!


Circuit: GF180MCU library cell mux2_4 I0_to_Z__I1=0,S=0

Doing analysis at TEMP = 32.461846 and TNOM = 27.000000

Using SPARSE 1.3 as Direct Linear Solver

Initial Transient Solution
--------------------------

Node                                   Voltage
----                                   -------
vdd                                    1.81751
i0                                           0
i1                                           0
s                                            0
xu1.int04                              1.81751
z                                  1.09289e-08
xu1.net_1                            0.0124346
xu1.net_3                              1.23545
xu1.sel1_n                             1.81751
xu1.net_0                              1.81751
xu1.net_2                              1.81751
vfix_s#branch                                0
vfix_i1#branch                               0
vin#branch                                   0
vdd#branch                         -1.5788e-11

 Reference value :  2.74825e-08
 Reference value :  6.51275e-08
 Reference value :  1.03293e-07
 Reference value :  1.44248e-07
 Reference value :  1.82873e-07
 Reference value :  2.19873e-07
 Reference value :  2.61653e-07
 Reference value :  3.01938e-07
 Reference value :  3.39673e-07
No. of Data Rows : 68032

  Measurements for Transient Analysis

tplh                =  1.54938e-09 targ=  2.71794e-08 trig=  2.56300e-08
tphl                =  2.31784e-09 targ=  1.01208e-07 trig=  9.88900e-08
i_vdd_avg           =  -6.62695e-07 from=  1.00000e-08 to=  3.30003e-07
power_avg_uw        =  1.20445e+00


Total analysis time (seconds) = 2.79525

Total elapsed time (seconds) = 2.863 

Total DRAM available = 16384.000 MB.
DRAM currently available =  104.078 MB.
Maximum ngspice program size =   15.344 MB.
Current ngspice program size =   15.344 MB.

