
Note: No compatibility mode selected!


Circuit: GF180MCU library cell nand2_1 A1_to_ZN__A2=1

Doing analysis at TEMP = -22.119824 and TNOM = 27.000000

Using SPARSE 1.3 as Direct Linear Solver

Initial Transient Solution
--------------------------

Node                                   Voltage
----                                   -------
vdd                                    1.64515
a1                                           0
a2                                     1.64515
xu1.net_0                          1.61254e-12
zn                                     1.64515
vfix_a2#branch                               0
vin#branch                                   0
vdd#branch                        -1.65544e-12

 Reference value :  1.19182e-07
 Reference value :  2.88552e-07
No. of Data Rows : 68030

  Measurements for Transient Analysis

tphl                =  3.06034e-09 targ=  3.05739e-08 trig=  2.75135e-08
tplh                =  4.36101e-09 targ=  1.08902e-07 trig=  1.04541e-07
i_vdd_avg           =  -5.01639e-07 from=  1.00000e-08 to=  3.30002e-07
power_avg_uw        =  8.25273e-01


Total analysis time (seconds) = 0.724615

Total elapsed time (seconds) = 0.784 

Total DRAM available = 16384.000 MB.
DRAM currently available =  107.016 MB.
Maximum ngspice program size =   14.312 MB.
Current ngspice program size =   14.312 MB.

