
Note: No compatibility mode selected!


Circuit: GF180MCU library cell nand2_4 A1_to_ZN__A2=1

Doing analysis at TEMP = 12.040037 and TNOM = 27.000000

Using SPARSE 1.3 as Direct Linear Solver

Initial Transient Solution
--------------------------

Node                                   Voltage
----                                   -------
vdd                                    1.66311
a1                                           0
a2                                     1.66311
xu1.net_0_0                        6.07619e-11
zn                                     1.66311
xu1.net_0_1                        6.07619e-11
xu1.net_0_2                        6.07619e-11
xu1.net_0_3                        6.07619e-11
vfix_a2#branch                               0
vin#branch                                   0
vdd#branch                        -6.73248e-12

 Reference value :  3.72627e-08
 Reference value :  8.93777e-08
 Reference value :  1.39328e-07
 Reference value :  1.91303e-07
 Reference value :  2.44798e-07
 Reference value :  2.93398e-07
No. of Data Rows : 68032

  Measurements for Transient Analysis

tphl                =  1.89617e-09 targ=  2.80263e-08 trig=  2.61301e-08
tplh                =  2.67362e-09 targ=  1.03064e-07 trig=  1.00390e-07
i_vdd_avg           =  -1.29639e-06 from=  1.00000e-08 to=  3.30003e-07
power_avg_uw        =  2.15604e+00


Total analysis time (seconds) = 2.0993

Total elapsed time (seconds) = 2.158 

Total DRAM available = 16384.000 MB.
DRAM currently available =  118.203 MB.
Maximum ngspice program size =   14.031 MB.
Current ngspice program size =   14.031 MB.

