
Note: No compatibility mode selected!


Circuit: GF180MCU library cell xor2_1 A1_to_Z__A2=0

Doing analysis at TEMP = 56.119745 and TNOM = 27.000000

Using SPARSE 1.3 as Direct Linear Solver

Initial Transient Solution
--------------------------

Node                                   Voltage
----                                   -------
vdd                                    1.69396
a1                                           0
a2                                           0
xu1.i                                  1.69396
z                                  5.88491e-08
xu1.net_0                          4.05403e-09
xu1.net_2                              1.69396
xu1.net_1                             0.769309
vfix_a2#branch                               0
vin#branch                                   0
vdd#branch                        -9.84147e-12

 Reference value :  4.62267e-08
 Reference value :  1.19256e-07
 Reference value :  1.89362e-07
 Reference value :  2.60816e-07
 Reference value :  3.31626e-07
No. of Data Rows : 68032

  Measurements for Transient Analysis

tplh                =  2.02887e-08 targ=  4.52008e-08 trig=  2.49121e-08
tphl                =  5.93605e-09 targ=  1.02672e-07 trig=  9.67363e-08
i_vdd_avg           =  -1.48444e-06 from=  1.00000e-08 to=  3.30001e-07
power_avg_uw        =  2.51458e+00


Total analysis time (seconds) = 1.55416

Total elapsed time (seconds) = 1.636 

Total DRAM available = 16384.000 MB.
DRAM currently available =  100.250 MB.
Maximum ngspice program size =   17.406 MB.
Current ngspice program size =   17.406 MB.

