
Note: No compatibility mode selected!


Circuit: GF180MCU library cell aoi21_4 A1_to_ZN__A2=1,B=0

Doing analysis at TEMP = 18.094790 and TNOM = 27.000000

Using SPARSE 1.3 as Direct Linear Solver

Initial Transient Solution
--------------------------

Node                                   Voltage
----                                   -------
vdd                                     1.8657
a1                                           0
a2                                      1.8657
b                                            0
xu1.net_0_0                        2.46601e-09
zn                                      1.8657
xu1.net_0_1                        2.46601e-09
xu1.net_0_2                        2.46601e-09
xu1.net_0_3                        2.46601e-09
xu1.net_1                               1.8657
vfix_b#branch                                0
vfix_a2#branch                               0
vin#branch                                   0
vdd#branch                        -2.03947e-11

 Reference value :  2.24364e-08
 Reference value :  5.40699e-08
 Reference value :  8.63599e-08
 Reference value :  1.16237e-07
 Reference value :  1.49197e-07
 Reference value :  1.79912e-07
 Reference value :  2.11645e-07
 Reference value :  2.41135e-07
 Reference value :  2.70412e-07
 Reference value :  3.01457e-07
 Reference value :  3.30342e-07
No. of Data Rows : 68030

  Measurements for Transient Analysis

tphl                =  1.31720e-09 targ=  2.93234e-08 trig=  2.80062e-08
tplh                =  3.27755e-09 targ=  1.09296e-07 trig=  1.06019e-07
i_vdd_avg           =  -1.72810e-06 from=  1.00000e-08 to=  3.30002e-07
power_avg_uw        =  3.22411e+00


Total analysis time (seconds) = 3.51139

Total elapsed time (seconds) = 3.576 

Total DRAM available = 16384.000 MB.
DRAM currently available =  117.125 MB.
Maximum ngspice program size =   16.594 MB.
Current ngspice program size =   16.594 MB.

