
Note: No compatibility mode selected!


Circuit: GF180MCU library cell oai21_1 A1_to_ZN__A2=0,B=1

Doing analysis at TEMP = 10.770699 and TNOM = 27.000000

Using SPARSE 1.3 as Direct Linear Solver

Initial Transient Solution
--------------------------

Node                                   Voltage
----                                   -------
vdd                                    1.91665
a1                                           0
a2                                           0
b                                      1.91665
zn                                     1.91665
xu1.net_0                          2.70333e-09
xu1.net_1                              1.91665
vfix_b#branch                                0
vfix_a2#branch                               0
vin#branch                                   0
vdd#branch                         -4.5636e-12

 Reference value :  1.01294e-07
 Reference value :  2.23924e-07
 Reference value :  3.22686e-07
No. of Data Rows : 68030

  Measurements for Transient Analysis

tphl                =  3.20611e-09 targ=  3.30569e-08 trig=  2.98508e-08
tplh                =  6.65673e-09 targ=  1.18209e-07 trig=  1.11552e-07
i_vdd_avg           =  -1.26536e-06 from=  1.00000e-08 to=  3.30001e-07
power_avg_uw        =  2.42525e+00


Total analysis time (seconds) = 1.00096

Total elapsed time (seconds) = 1.062 

Total DRAM available = 16384.000 MB.
DRAM currently available =  146.828 MB.
Maximum ngspice program size =   14.797 MB.
Current ngspice program size =   14.797 MB.

