
Note: No compatibility mode selected!


Circuit: GF180MCU library cell xor2_1 A1_to_Z__A2=0

Doing analysis at TEMP = -20.368782 and TNOM = 27.000000

Using SPARSE 1.3 as Direct Linear Solver

Initial Transient Solution
--------------------------

Node                                   Voltage
----                                   -------
vdd                                    1.64888
a1                                           0
a2                                           0
xu1.i                                  1.64888
z                                  2.57005e-08
xu1.net_0                          1.24967e-09
xu1.net_2                              1.64888
xu1.net_1                             0.690957
vfix_a2#branch                               0
vin#branch                                   0
vdd#branch                        -9.70315e-12

 Reference value :  4.69788e-08
 Reference value :  1.17925e-07
 Reference value :  1.94748e-07
 Reference value :  2.66919e-07
No. of Data Rows : 68030

  Measurements for Transient Analysis

tplh                =  8.59895e-09 targ=  3.84471e-08 trig=  2.98481e-08
tphl                =  4.42318e-09 targ=  1.15968e-07 trig=  1.11544e-07
i_vdd_avg           =  -1.87348e-06 from=  1.00000e-08 to=  3.30000e-07
power_avg_uw        =  3.08915e+00


Total analysis time (seconds) = 1.50372

Total elapsed time (seconds) = 1.572 

Total DRAM available = 16384.000 MB.
DRAM currently available =  105.453 MB.
Maximum ngspice program size =   17.625 MB.
Current ngspice program size =   17.625 MB.

