
Note: No compatibility mode selected!


Circuit: GF180MCU library cell nor2_1 A1_to_ZN__A2=0

Doing analysis at TEMP = 91.569516 and TNOM = 27.000000

Using SPARSE 1.3 as Direct Linear Solver

Initial Transient Solution
--------------------------

Node                                   Voltage
----                                   -------
vdd                                    1.81216
a1                                           0
a2                                           0
zn                                     1.81216
xu1.net_0                              1.81216
vfix_a2#branch                               0
vin#branch                                   0
vdd#branch                        -4.05853e-12

 Reference value :  1.20397e-07
 Reference value :  2.74647e-07
No. of Data Rows : 68030

  Measurements for Transient Analysis

tphl                =  4.28371e-09 targ=  3.18997e-08 trig=  2.76160e-08
tplh                =  1.08291e-08 targ=  1.15677e-07 trig=  1.04848e-07
i_vdd_avg           =  -8.22799e-07 from=  1.00000e-08 to=  3.30002e-07
power_avg_uw        =  1.49104e+00


Total analysis time (seconds) = 0.70039

Total elapsed time (seconds) = 0.781 

Total DRAM available = 16384.000 MB.
DRAM currently available =  167.062 MB.
Maximum ngspice program size =   18.312 MB.
Current ngspice program size =   18.312 MB.

