
Note: No compatibility mode selected!


Circuit: GF180MCU library cell xor2_1 A1_to_Z__A2=0

Doing analysis at TEMP = 121.946920 and TNOM = 27.000000

Using SPARSE 1.3 as Direct Linear Solver

Initial Transient Solution
--------------------------

Node                                   Voltage
----                                   -------
vdd                                    1.77903
a1                                           0
a2                                           0
xu1.i                                  1.77903
z                                  7.15043e-08
xu1.net_0                          3.26809e-08
xu1.net_2                              1.77903
xu1.net_1                             0.680202
vfix_a2#branch                               0
vin#branch                                   0
vdd#branch                        -2.07727e-11

 Reference value :  4.44216e-08
 Reference value :  1.15121e-07
 Reference value :  1.89603e-07
 Reference value :  2.61552e-07
 Reference value :  3.33781e-07
No. of Data Rows : 68032

  Measurements for Transient Analysis

tplh                =  7.53438e-09 targ=  3.65139e-08 trig=  2.89796e-08
tphl                =  5.25169e-09 targ=  1.14190e-07 trig=  1.08939e-07
i_vdd_avg           =  -6.04148e-07 from=  1.00000e-08 to=  3.30001e-07
power_avg_uw        =  1.07480e+00


Total analysis time (seconds) = 1.55171

Total elapsed time (seconds) = 1.638 

Total DRAM available = 16384.000 MB.
DRAM currently available =  128.922 MB.
Maximum ngspice program size =   18.469 MB.
Current ngspice program size =   18.469 MB.

