
Note: No compatibility mode selected!


Circuit: GF180MCU library cell aoi21_1 A1_to_ZN__A2=1,B=0

Doing analysis at TEMP = 67.533303 and TNOM = 27.000000

Using SPARSE 1.3 as Direct Linear Solver

Initial Transient Solution
--------------------------

Node                                   Voltage
----                                   -------
vdd                                    1.91017
a1                                           0
a2                                     1.91017
b                                            0
xu1.net_0                          3.41382e-10
zn                                     1.91017
xu1.net_1                              1.91017
vfix_b#branch                                0
vfix_a2#branch                               0
vin#branch                                   0
vdd#branch                          -3.935e-12

 Reference value :  1.00252e-07
 Reference value :  2.22262e-07
 Reference value :  3.29457e-07
No. of Data Rows : 68032

  Measurements for Transient Analysis

tphl                =  2.06087e-09 targ=  2.73282e-08 trig=  2.52673e-08
tplh                =  4.75048e-09 targ=  1.02553e-07 trig=  9.78020e-08
i_vdd_avg           =  -4.58704e-07 from=  1.00000e-08 to=  3.30002e-07
power_avg_uw        =  8.76202e-01


Total analysis time (seconds) = 0.969779

Total elapsed time (seconds) = 1.034 

Total DRAM available = 16384.000 MB.
DRAM currently available =  148.812 MB.
Maximum ngspice program size =   12.797 MB.
Current ngspice program size =   12.688 MB.

