
Note: No compatibility mode selected!


Circuit: GF180MCU library cell oai21_1 A1_to_ZN__A2=0,B=1

Doing analysis at TEMP = 8.477272 and TNOM = 27.000000

Using SPARSE 1.3 as Direct Linear Solver

Initial Transient Solution
--------------------------

Node                                   Voltage
----                                   -------
vdd                                    1.85618
a1                                           0
a2                                           0
b                                      1.85618
zn                                     1.85618
xu1.net_0                          3.69641e-12
xu1.net_1                              1.85618
vfix_b#branch                                0
vfix_a2#branch                               0
vin#branch                                   0
vdd#branch                        -3.73286e-12

 Reference value :  7.21427e-08
 Reference value :  1.71978e-07
 Reference value :  2.78028e-07
No. of Data Rows : 68032

  Measurements for Transient Analysis

tphl                =  5.50284e-09 targ=  3.01729e-08 trig=  2.46701e-08
tplh                =  1.54721e-08 targ=  1.11482e-07 trig=  9.60103e-08
i_vdd_avg           =  -1.65551e-06 from=  1.00000e-08 to=  3.30003e-07
power_avg_uw        =  3.07291e+00


Total analysis time (seconds) = 1.07187

Total elapsed time (seconds) = 1.135 

Total DRAM available = 16384.000 MB.
DRAM currently available =  105.906 MB.
Maximum ngspice program size =   16.047 MB.
Current ngspice program size =   16.047 MB.

