
Note: No compatibility mode selected!


Circuit: GF180MCU library cell oai21_4 A1_to_ZN__A2=0,B=1

Doing analysis at TEMP = -33.329884 and TNOM = 27.000000

Using SPARSE 1.3 as Direct Linear Solver

Initial Transient Solution
--------------------------

Node                                   Voltage
----                                   -------
vdd                                    1.71774
a1                                           0
a2                                           0
b                                      1.71774
zn                                     1.71774
xu1.net_0                          7.62734e-13
xu1.net_1_0                            1.71774
xu1.net_1_1                            1.71774
xu1.net_1_2                            1.71774
xu1.net_1_3                            1.71774
vfix_b#branch                                0
vfix_a2#branch                               0
vin#branch                                   0
vdd#branch                        -1.38225e-11

 Reference value :  2.73325e-08
 Reference value :  5.85168e-08
 Reference value :  8.90218e-08
 Reference value :  1.17821e-07
 Reference value :  1.47286e-07
 Reference value :  1.77836e-07
 Reference value :  2.08547e-07
 Reference value :  2.41052e-07
 Reference value :  2.71131e-07
 Reference value :  3.02421e-07
 Reference value :  3.33931e-07
No. of Data Rows : 68032

  Measurements for Transient Analysis

tphl                =  1.82506e-09 targ=  2.94247e-08 trig=  2.75997e-08
tplh                =  3.74172e-09 targ=  1.08541e-07 trig=  1.04799e-07
i_vdd_avg           =  -8.73952e-07 from=  1.00000e-08 to=  3.30001e-07
power_avg_uw        =  1.50122e+00


Total analysis time (seconds) = 3.52636

Total elapsed time (seconds) = 3.589 

Total DRAM available = 16384.000 MB.
DRAM currently available =  106.984 MB.
Maximum ngspice program size =   16.031 MB.
Current ngspice program size =   16.031 MB.

