
Note: No compatibility mode selected!


Circuit: GF180MCU library cell xor2_1 A1_to_Z__A2=0

Doing analysis at TEMP = -6.584105 and TNOM = 27.000000

Using SPARSE 1.3 as Direct Linear Solver

Initial Transient Solution
--------------------------

Node                                   Voltage
----                                   -------
vdd                                    1.83518
a1                                           0
a2                                           0
xu1.i                                  1.83518
z                                  4.50784e-08
xu1.net_0                          9.44145e-12
xu1.net_2                              1.83518
xu1.net_1                             0.917566
vfix_a2#branch                               0
vin#branch                                   0
vdd#branch                        -1.01428e-11

 Reference value :  5.00144e-08
 Reference value :  1.17001e-07
 Reference value :  1.90259e-07
 Reference value :  2.63786e-07
 Reference value :  3.35586e-07
No. of Data Rows : 68030

  Measurements for Transient Analysis

tplh                =  2.25662e-08 targ=  4.88322e-08 trig=  2.62659e-08
tphl                =  6.73495e-09 targ=  1.07533e-07 trig=  1.00798e-07
i_vdd_avg           =  -2.36218e-06 from=  1.00000e-08 to=  3.30001e-07
power_avg_uw        =  4.33504e+00


Total analysis time (seconds) = 1.56393

Total elapsed time (seconds) = 1.626 

Total DRAM available = 16384.000 MB.
DRAM currently available =  130.047 MB.
Maximum ngspice program size =   17.219 MB.
Current ngspice program size =   17.219 MB.

