
Note: No compatibility mode selected!


Circuit: GF180MCU library cell nand2_1 A1_to_ZN__A2=1

Doing analysis at TEMP = 10.383993 and TNOM = 27.000000

Using SPARSE 1.3 as Direct Linear Solver

Initial Transient Solution
--------------------------

Node                                   Voltage
----                                   -------
vdd                                    1.88453
a1                                           0
a2                                     1.88453
xu1.net_0                          1.31316e-09
zn                                     1.88453
vfix_a2#branch                               0
vin#branch                                   0
vdd#branch                        -2.23356e-12

 Reference value :  1.25818e-07
 Reference value :  3.05308e-07
No. of Data Rows : 68032

  Measurements for Transient Analysis

tphl                =  8.56816e-10 targ=  2.76694e-08 trig=  2.68126e-08
tplh                =  1.72901e-09 targ=  1.04167e-07 trig=  1.02438e-07
i_vdd_avg           =  -2.90497e-07 from=  1.00000e-08 to=  3.30003e-07
power_avg_uw        =  5.47450e-01


Total analysis time (seconds) = 0.654287

Total elapsed time (seconds) = 0.720 

Total DRAM available = 16384.000 MB.
DRAM currently available =  100.703 MB.
Maximum ngspice program size =   15.656 MB.
Current ngspice program size =   15.656 MB.

