
Note: No compatibility mode selected!


Circuit: GF180MCU library cell nand2_4 A1_to_ZN__A2=1

Doing analysis at TEMP = -12.450166 and TNOM = 27.000000

Using SPARSE 1.3 as Direct Linear Solver

Initial Transient Solution
--------------------------

Node                                   Voltage
----                                   -------
vdd                                    1.90945
a1                                           0
a2                                     1.90945
xu1.net_0_0                        4.59266e-12
zn                                     1.90945
xu1.net_0_1                        4.59267e-12
xu1.net_0_2                        4.59266e-12
xu1.net_0_3                        4.59267e-12
vfix_a2#branch                               0
vin#branch                                   0
vdd#branch                        -7.68175e-12

 Reference value :  3.21362e-08
 Reference value :  8.06312e-08
 Reference value :  1.34760e-07
 Reference value :  1.84188e-07
 Reference value :  2.35726e-07
 Reference value :  2.88905e-07
No. of Data Rows : 68034

  Measurements for Transient Analysis

tphl                =  1.74782e-09 targ=  2.94797e-08 trig=  2.77319e-08
tplh                =  2.90721e-09 targ=  1.08103e-07 trig=  1.05196e-07
i_vdd_avg           =  -1.32862e-06 from=  1.00000e-08 to=  3.30005e-07
power_avg_uw        =  2.53693e+00


Total analysis time (seconds) = 2.17895

Total elapsed time (seconds) = 2.247 

Total DRAM available = 16384.000 MB.
DRAM currently available =  105.844 MB.
Maximum ngspice program size =   15.328 MB.
Current ngspice program size =   15.328 MB.

