
Note: No compatibility mode selected!


Circuit: GF180MCU library cell nand2_1 A1_to_ZN__A2=1

Doing analysis at TEMP = 54.416099 and TNOM = 27.000000

Using SPARSE 1.3 as Direct Linear Solver

Initial Transient Solution
--------------------------

Node                                   Voltage
----                                   -------
vdd                                    1.90955
a1                                           0
a2                                     1.90955
xu1.net_0                           1.8292e-09
zn                                     1.90955
vfix_a2#branch                               0
vin#branch                                   0
vdd#branch                        -2.24115e-12

 Reference value :  1.35135e-07
 Reference value :  3.07400e-07
No. of Data Rows : 68034

  Measurements for Transient Analysis

tphl                =  5.66879e-09 targ=  3.14531e-08 trig=  2.57843e-08
tplh                =  7.87865e-09 targ=  1.07232e-07 trig=  9.93530e-08
i_vdd_avg           =  -2.47354e-06 from=  1.00000e-08 to=  3.30005e-07
power_avg_uw        =  4.72333e+00


Total analysis time (seconds) = 0.594278

Total elapsed time (seconds) = 0.653 

Total DRAM available = 16384.000 MB.
DRAM currently available =  102.266 MB.
Maximum ngspice program size =   16.562 MB.
Current ngspice program size =   16.562 MB.

