
Note: No compatibility mode selected!


Circuit: GF180MCU library cell mux2_4 I0_to_Z__I1=0,S=0

Doing analysis at TEMP = 122.141620 and TNOM = 27.000000

Using SPARSE 1.3 as Direct Linear Solver

Initial Transient Solution
--------------------------

Node                                   Voltage
----                                   -------
vdd                                     1.6944
i0                                           0
i1                                           0
s                                            0
xu1.int04                               1.6944
z                                  1.67671e-08
xu1.net_1                            0.0465037
xu1.net_3                              1.23058
xu1.sel1_n                              1.6944
xu1.net_0                               1.6944
xu1.net_2                               1.6944
vfix_s#branch                                0
vfix_i1#branch                               0
vin#branch                                   0
vdd#branch                        -4.47214e-11

 Reference value :  3.42007e-08
 Reference value :  7.63607e-08
 Reference value :  1.14884e-07
 Reference value :  1.55839e-07
 Reference value :  1.93181e-07
 Reference value :  2.31046e-07
 Reference value :  2.71424e-07
 Reference value :  3.10979e-07
No. of Data Rows : 68034

  Measurements for Transient Analysis

tplh                =  3.41668e-09 targ=  3.06733e-08 trig=  2.72566e-08
tphl                =  4.08352e-09 targ=  1.07853e-07 trig=  1.03770e-07
i_vdd_avg           =  -1.95082e-06 from=  1.00000e-08 to=  3.30004e-07
power_avg_uw        =  3.30546e+00


Total analysis time (seconds) = 2.67735

Total elapsed time (seconds) = 2.744 

Total DRAM available = 16384.000 MB.
DRAM currently available =   68.219 MB.
Maximum ngspice program size =   14.797 MB.
Current ngspice program size =   14.797 MB.

