
Note: No compatibility mode selected!


Circuit: GF180MCU library cell oai21_4 A1_to_ZN__A2=0,B=1

Doing analysis at TEMP = 10.271384 and TNOM = 27.000000

Using SPARSE 1.3 as Direct Linear Solver

Initial Transient Solution
--------------------------

Node                                   Voltage
----                                   -------
vdd                                    1.69391
a1                                           0
a2                                           0
b                                      1.69391
zn                                     1.69391
xu1.net_0                          1.01722e-10
xu1.net_1_0                            1.69391
xu1.net_1_1                            1.69391
xu1.net_1_2                            1.69391
xu1.net_1_3                            1.69391
vfix_b#branch                                0
vfix_a2#branch                               0
vin#branch                                   0
vdd#branch                        -1.37004e-11

 Reference value :  2.10364e-08
 Reference value :  5.29695e-08
 Reference value :  8.19195e-08
 Reference value :  1.11789e-07
 Reference value :  1.38686e-07
 Reference value :  1.71546e-07
 Reference value :  2.04219e-07
 Reference value :  2.35244e-07
 Reference value :  2.65764e-07
 Reference value :  2.96541e-07
 Reference value :  3.28151e-07
No. of Data Rows : 68030

  Measurements for Transient Analysis

tphl                =  7.62547e-10 targ=  3.05160e-08 trig=  2.97535e-08
tplh                =  2.79888e-09 targ=  1.14059e-07 trig=  1.11260e-07
i_vdd_avg           =  -2.18840e-07 from=  1.00000e-08 to=  3.30001e-07
power_avg_uw        =  3.70696e-01


Total analysis time (seconds) = 3.58873

Total elapsed time (seconds) = 3.659 

Total DRAM available = 16384.000 MB.
DRAM currently available =  106.984 MB.
Maximum ngspice program size =   14.031 MB.
Current ngspice program size =   14.031 MB.

