
Note: No compatibility mode selected!


Circuit: GF180MCU library cell oai21_1 A1_to_ZN__A2=0,B=1

Doing analysis at TEMP = 91.448293 and TNOM = 27.000000

Using SPARSE 1.3 as Direct Linear Solver

Initial Transient Solution
--------------------------

Node                                   Voltage
----                                   -------
vdd                                    1.83881
a1                                           0
a2                                           0
b                                      1.83881
zn                                     1.83881
xu1.net_0                          4.03819e-08
xu1.net_1                              1.83881
vfix_b#branch                                0
vfix_a2#branch                               0
vin#branch                                   0
vdd#branch                        -9.86288e-12

 Reference value :  9.52727e-08
 Reference value :  2.19368e-07
 Reference value :  3.15693e-07
No. of Data Rows : 68032

  Measurements for Transient Analysis

tphl                =  4.11891e-09 targ=  3.25190e-08 trig=  2.84001e-08
tplh                =  8.35925e-09 targ=  1.15560e-07 trig=  1.07200e-07
i_vdd_avg           =  -1.00748e-06 from=  1.00000e-08 to=  3.30003e-07
power_avg_uw        =  1.85257e+00


Total analysis time (seconds) = 1.00576

Total elapsed time (seconds) = 1.076 

Total DRAM available = 16384.000 MB.
DRAM currently available =  123.047 MB.
Maximum ngspice program size =   14.734 MB.
Current ngspice program size =   14.734 MB.

