
Note: No compatibility mode selected!


Circuit: GF180MCU library cell inv_4 I_to_ZN

Doing analysis at TEMP = 30.150776 and TNOM = 27.000000

Using SPARSE 1.3 as Direct Linear Solver

Initial Transient Solution
--------------------------

Node                                   Voltage
----                                   -------
vdd                                    1.93785
i                                            0
zn                                     1.93785
vin#branch                                   0
vdd#branch                        -1.39664e-11

 Reference value :  9.48713e-08
 Reference value :  1.98751e-07
 Reference value :  2.92775e-07
No. of Data Rows : 68032

  Measurements for Transient Analysis

tphl                =  1.15857e-09 targ=  2.75180e-08 trig=  2.63594e-08
tplh                =  2.23540e-09 targ=  1.03314e-07 trig=  1.01078e-07
i_vdd_avg           =  -2.65988e-06 from=  1.00000e-08 to=  3.30000e-07
power_avg_uw        =  5.15445e+00


Total analysis time (seconds) = 0.992027

Total elapsed time (seconds) = 1.039 

Total DRAM available = 16384.000 MB.
DRAM currently available =  134.656 MB.
Maximum ngspice program size =   14.203 MB.
Current ngspice program size =   14.203 MB.

