
Note: No compatibility mode selected!


Circuit: GF180MCU library cell xor2_4 A1_to_Z__A2=0

Doing analysis at TEMP = -16.323847 and TNOM = 27.000000

Using SPARSE 1.3 as Direct Linear Solver

Initial Transient Solution
--------------------------

Node                                   Voltage
----                                   -------
vdd                                    1.70702
a1                                           0
a2                                           0
xu1.net_2                          8.00575e-05
xu1.i                                  1.70702
xu1.net_0                          2.17574e-13
xu1.z_neg                              1.70702
z                                   1.3607e-08
xu1.net_1                              1.70702
vfix_a2#branch                               0
vin#branch                                   0
vdd#branch                        -1.22927e-11

 Reference value :  2.78675e-08
 Reference value :  7.05734e-08
 Reference value :  1.13538e-07
 Reference value :  1.54974e-07
 Reference value :  1.96068e-07
 Reference value :  2.37023e-07
 Reference value :  2.78394e-07
 Reference value :  3.17504e-07
No. of Data Rows : 68032

  Measurements for Transient Analysis

tplh                =  4.38045e-09 targ=  3.39934e-08 trig=  2.96130e-08
tphl                =  6.63532e-09 targ=  1.17474e-07 trig=  1.10839e-07
i_vdd_avg           =  -6.84462e-07 from=  1.00000e-08 to=  3.30004e-07
power_avg_uw        =  1.16839e+00


Total analysis time (seconds) = 2.79159

Total elapsed time (seconds) = 2.890 

Total DRAM available = 16384.000 MB.
DRAM currently available =  102.312 MB.
Maximum ngspice program size =   17.578 MB.
Current ngspice program size =   17.578 MB.

