
Note: No compatibility mode selected!


Circuit: GF180MCU library cell nand3_4 A1_to_ZN__A2=1,A3=1

Doing analysis at TEMP = -26.549732 and TNOM = 27.000000

Using SPARSE 1.3 as Direct Linear Solver

Initial Transient Solution
--------------------------

Node                                   Voltage
----                                   -------
vdd                                    1.78793
a1                                           0
a2                                     1.78793
a3                                     1.78793
xu1.net_1_3                        2.66539e-14
xu1.net_0                          5.32826e-14
xu1.net_1_2                        2.66514e-14
xu1.net_1_1                        2.66539e-14
xu1.net_1_0                        2.66426e-14
xu1.net_0_0                        5.32852e-14
zn                                     1.78793
vfix_a3#branch                               0
vfix_a2#branch                               0
vin#branch                                   0
vdd#branch                        -7.19172e-12

 Reference value :  2.86625e-08
 Reference value :  6.22695e-08
 Reference value :  8.98495e-08
 Reference value :  1.19702e-07
 Reference value :  1.51907e-07
 Reference value :  1.83162e-07
 Reference value :  2.15055e-07
 Reference value :  2.45305e-07
 Reference value :  2.74072e-07
 Reference value :  3.01377e-07
 Reference value :  3.32137e-07
No. of Data Rows : 68030

  Measurements for Transient Analysis

tphl                =  4.52534e-09 targ=  3.25414e-08 trig=  2.80160e-08
tplh                =  5.86645e-09 targ=  1.11915e-07 trig=  1.06048e-07
i_vdd_avg           =  -2.06065e-06 from=  1.00000e-08 to=  3.30002e-07
power_avg_uw        =  3.68429e+00


Total analysis time (seconds) = 3.62349

Total elapsed time (seconds) = 3.686 

Total DRAM available = 16384.000 MB.
DRAM currently available =   91.703 MB.
Maximum ngspice program size =   12.625 MB.
Current ngspice program size =   12.422 MB.

