
Note: No compatibility mode selected!


Circuit: GF180MCU library cell mux2_4 I0_to_Z__I1=0,S=0

Doing analysis at TEMP = -2.728886 and TNOM = 27.000000

Using SPARSE 1.3 as Direct Linear Solver

Initial Transient Solution
--------------------------

Node                                   Voltage
----                                   -------
vdd                                    1.79405
i0                                           0
i1                                           0
s                                            0
xu1.int04                              1.79405
z                                  7.52035e-09
xu1.net_1                            0.0163991
xu1.net_3                              1.26734
xu1.sel1_n                             1.79405
xu1.net_0                              1.79405
xu1.net_2                              1.79405
vfix_s#branch                                0
vfix_i1#branch                               0
vin#branch                                   0
vdd#branch                        -1.58383e-11

 Reference value :  3.32363e-08
 Reference value :  7.32863e-08
 Reference value :  1.11930e-07
 Reference value :  1.52140e-07
 Reference value :  1.89351e-07
 Reference value :  2.31101e-07
 Reference value :  2.72875e-07
 Reference value :  3.14725e-07
No. of Data Rows : 68032

  Measurements for Transient Analysis

tplh                =  1.40564e-09 targ=  2.78876e-08 trig=  2.64819e-08
tphl                =  2.13010e-09 targ=  1.03576e-07 trig=  1.01446e-07
i_vdd_avg           =  -1.32487e-06 from=  1.00000e-08 to=  3.30000e-07
power_avg_uw        =  2.37687e+00


Total analysis time (seconds) = 2.68299

Total elapsed time (seconds) = 2.753 

Total DRAM available = 16384.000 MB.
DRAM currently available =   75.609 MB.
Maximum ngspice program size =   15.750 MB.
Current ngspice program size =   15.750 MB.

