
Note: No compatibility mode selected!


Circuit: GF180MCU library cell nor2_1 A1_to_ZN__A2=0

Doing analysis at TEMP = 12.979372 and TNOM = 27.000000

Using SPARSE 1.3 as Direct Linear Solver

Initial Transient Solution
--------------------------

Node                                   Voltage
----                                   -------
vdd                                    1.70586
a1                                           0
a2                                           0
zn                                     1.70586
xu1.net_0                              1.70586
vfix_a2#branch                               0
vin#branch                                   0
vdd#branch                        -3.45693e-12

 Reference value :  1.07088e-07
 Reference value :  2.51373e-07
No. of Data Rows : 68032

  Measurements for Transient Analysis

tphl                =  3.36223e-09 targ=  2.96600e-08 trig=  2.62977e-08
tplh                =  9.47727e-09 targ=  1.10370e-07 trig=  1.00893e-07
i_vdd_avg           =  -1.12944e-06 from=  1.00000e-08 to=  3.30003e-07
power_avg_uw        =  1.92668e+00


Total analysis time (seconds) = 0.772556

Total elapsed time (seconds) = 0.841 

Total DRAM available = 16384.000 MB.
DRAM currently available =  102.938 MB.
Maximum ngspice program size =   17.625 MB.
Current ngspice program size =   17.625 MB.

