
Note: No compatibility mode selected!


Circuit: GF180MCU library cell nand2_4 A1_to_ZN__A2=1

Doing analysis at TEMP = 74.015432 and TNOM = 27.000000

Using SPARSE 1.3 as Direct Linear Solver

Initial Transient Solution
--------------------------

Node                                   Voltage
----                                   -------
vdd                                    1.86282
a1                                           0
a2                                     1.86282
xu1.net_0_0                        6.95132e-09
zn                                     1.86282
xu1.net_0_1                        6.95132e-09
xu1.net_0_2                        6.95132e-09
xu1.net_0_3                        6.95132e-09
vfix_a2#branch                               0
vin#branch                                   0
vdd#branch                        -1.19955e-11

 Reference value :  3.68797e-08
 Reference value :  8.83197e-08
 Reference value :  1.40782e-07
 Reference value :  1.91138e-07
 Reference value :  2.42015e-07
 Reference value :  2.93827e-07
No. of Data Rows : 68030

  Measurements for Transient Analysis

tphl                =  1.52224e-09 targ=  3.11033e-08 trig=  2.95811e-08
tplh                =  3.11570e-09 targ=  1.13859e-07 trig=  1.10743e-07
i_vdd_avg           =  -9.58787e-07 from=  1.00000e-08 to=  3.30002e-07
power_avg_uw        =  1.78604e+00


Total analysis time (seconds) = 2.13015

Total elapsed time (seconds) = 2.197 

Total DRAM available = 16384.000 MB.
DRAM currently available =  100.984 MB.
Maximum ngspice program size =   16.250 MB.
Current ngspice program size =   16.250 MB.

