
Note: No compatibility mode selected!


Circuit: GF180MCU library cell nand2_4 A1_to_ZN__A2=1

Doing analysis at TEMP = -30.265608 and TNOM = 27.000000

Using SPARSE 1.3 as Direct Linear Solver

Initial Transient Solution
--------------------------

Node                                   Voltage
----                                   -------
vdd                                    1.84823
a1                                           0
a2                                     1.84823
xu1.net_0_0                        5.47652e-13
zn                                     1.84823
xu1.net_0_1                        5.47669e-13
xu1.net_0_2                        5.47652e-13
xu1.net_0_3                        5.47669e-13
vfix_a2#branch                               0
vin#branch                                   0
vdd#branch                         -7.4334e-12

 Reference value :  3.13867e-08
 Reference value :  7.71517e-08
 Reference value :  1.27731e-07
 Reference value :  1.78911e-07
 Reference value :  2.25267e-07
 Reference value :  2.75081e-07
 Reference value :  3.21806e-07
No. of Data Rows : 68032

  Measurements for Transient Analysis

tphl                =  6.55290e-10 targ=  2.64124e-08 trig=  2.57571e-08
tplh                =  1.18631e-09 targ=  1.00458e-07 trig=  9.92713e-08
i_vdd_avg           =  -3.63802e-07 from=  1.00000e-08 to=  3.30001e-07
power_avg_uw        =  6.72391e-01


Total analysis time (seconds) = 2.22918

Total elapsed time (seconds) = 2.302 

Total DRAM available = 16384.000 MB.
DRAM currently available =  167.062 MB.
Maximum ngspice program size =   18.016 MB.
Current ngspice program size =   18.016 MB.

