
Note: No compatibility mode selected!


Circuit: GF180MCU library cell nor2_1 A1_to_ZN__A2=0

Doing analysis at TEMP = 34.616023 and TNOM = 27.000000

Using SPARSE 1.3 as Direct Linear Solver

Initial Transient Solution
--------------------------

Node                                   Voltage
----                                   -------
vdd                                    1.65127
a1                                           0
a2                                           0
zn                                     1.65127
xu1.net_0                              1.65127
vfix_a2#branch                               0
vin#branch                                   0
vdd#branch                        -3.46883e-12

 Reference value :  1.02321e-07
 Reference value :  2.55021e-07
No. of Data Rows : 68034

  Measurements for Transient Analysis

tphl                =  3.51595e-09 targ=  3.16476e-08 trig=  2.81316e-08
tplh                =  7.83646e-09 targ=  1.14231e-07 trig=  1.06395e-07
i_vdd_avg           =  -6.64027e-07 from=  1.00000e-08 to=  3.30004e-07
power_avg_uw        =  1.09649e+00


Total analysis time (seconds) = 0.754362

Total elapsed time (seconds) = 0.831 

Total DRAM available = 16384.000 MB.
DRAM currently available =  102.938 MB.
Maximum ngspice program size =   16.625 MB.
Current ngspice program size =   16.625 MB.

