
Note: No compatibility mode selected!


Circuit: GF180MCU library cell aoi21_1 A1_to_ZN__A2=1,B=0

Doing analysis at TEMP = -24.638924 and TNOM = 27.000000

Using SPARSE 1.3 as Direct Linear Solver

Initial Transient Solution
--------------------------

Node                                   Voltage
----                                   -------
vdd                                    1.87027
a1                                           0
a2                                     1.87027
b                                            0
xu1.net_0                          1.10661e-12
zn                                     1.87027
xu1.net_1                              1.87027
vfix_b#branch                                0
vfix_a2#branch                               0
vin#branch                                   0
vdd#branch                        -3.76114e-12

 Reference value :  6.91267e-08
 Reference value :  1.76911e-07
 Reference value :  2.80466e-07
No. of Data Rows : 68032

  Measurements for Transient Analysis

tphl                =  4.53045e-09 targ=  3.33625e-08 trig=  2.88321e-08
tplh                =  9.07609e-09 targ=  1.17572e-07 trig=  1.08496e-07
i_vdd_avg           =  -1.29641e-06 from=  1.00000e-08 to=  3.30001e-07
power_avg_uw        =  2.42464e+00


Total analysis time (seconds) = 1.07201

Total elapsed time (seconds) = 1.147 

Total DRAM available = 16384.000 MB.
DRAM currently available =  148.812 MB.
Maximum ngspice program size =   16.391 MB.
Current ngspice program size =   16.391 MB.

