
Note: No compatibility mode selected!


Circuit: GF180MCU library cell xor2_4 A1_to_Z__A2=0

Doing analysis at TEMP = 11.896587 and TNOM = 27.000000

Using SPARSE 1.3 as Direct Linear Solver

Initial Transient Solution
--------------------------

Node                                   Voltage
----                                   -------
vdd                                    1.75333
a1                                           0
a2                                           0
xu1.net_2                            0.0378195
xu1.i                                  1.75333
xu1.net_0                          3.03096e-09
xu1.z_neg                              1.75333
z                                  7.87767e-09
xu1.net_1                              1.75333
vfix_a2#branch                               0
vin#branch                                   0
vdd#branch                          -1.376e-11

 Reference value :  3.03325e-08
 Reference value :  7.11505e-08
 Reference value :  1.08770e-07
 Reference value :  1.52428e-07
 Reference value :  1.95995e-07
 Reference value :  2.34435e-07
 Reference value :  2.80588e-07
 Reference value :  3.22668e-07
No. of Data Rows : 68034

  Measurements for Transient Analysis

tplh                =  1.30662e-09 targ=  2.96281e-08 trig=  2.83215e-08
tphl                =  2.89142e-09 targ=  1.09856e-07 trig=  1.06964e-07
i_vdd_avg           =  -8.62850e-07 from=  1.00000e-08 to=  3.30003e-07
power_avg_uw        =  1.51286e+00


Total analysis time (seconds) = 2.58681

Total elapsed time (seconds) = 2.656 

Total DRAM available = 16384.000 MB.
DRAM currently available =   67.094 MB.
Maximum ngspice program size =   18.531 MB.
Current ngspice program size =   18.531 MB.

