
Note: No compatibility mode selected!


Circuit: GF180MCU library cell aoi21_4 A1_to_ZN__A2=1,B=0

Doing analysis at TEMP = -28.230980 and TNOM = 27.000000

Using SPARSE 1.3 as Direct Linear Solver

Initial Transient Solution
--------------------------

Node                                   Voltage
----                                   -------
vdd                                    1.80097
a1                                           0
a2                                     1.80097
b                                            0
xu1.net_0_0                        2.09216e-14
zn                                     1.80097
xu1.net_0_1                        1.74145e-14
xu1.net_0_2                        2.09216e-14
xu1.net_0_3                        1.74145e-14
xu1.net_1                              1.80097
vfix_b#branch                                0
vfix_a2#branch                               0
vin#branch                                   0
vdd#branch                        -1.44878e-11

 Reference value :  2.87002e-08
 Reference value :  6.54952e-08
 Reference value :  9.45652e-08
 Reference value :  1.26428e-07
 Reference value :  1.57828e-07
 Reference value :  1.91075e-07
 Reference value :  2.22160e-07
 Reference value :  2.53400e-07
 Reference value :  2.85748e-07
 Reference value :  3.17918e-07
No. of Data Rows : 68034

  Measurements for Transient Analysis

tphl                =  1.75391e-09 targ=  2.60577e-08 trig=  2.43038e-08
tplh                =  5.06653e-09 targ=  9.99780e-08 trig=  9.49115e-08
i_vdd_avg           =  -1.95950e-06 from=  1.00000e-08 to=  3.30003e-07
power_avg_uw        =  3.52900e+00


Total analysis time (seconds) = 3.40258

Total elapsed time (seconds) = 3.468 

Total DRAM available = 16384.000 MB.
DRAM currently available =   89.734 MB.
Maximum ngspice program size =   15.078 MB.
Current ngspice program size =   15.078 MB.

