
Note: No compatibility mode selected!


Circuit: GF180MCU library cell aoi21_1 A1_to_ZN__A2=1,B=0

Doing analysis at TEMP = 31.824906 and TNOM = 27.000000

Using SPARSE 1.3 as Direct Linear Solver

Initial Transient Solution
--------------------------

Node                                   Voltage
----                                   -------
vdd                                    1.77758
a1                                           0
a2                                     1.77758
b                                            0
xu1.net_0                          3.33506e-10
zn                                     1.77758
xu1.net_1                              1.77758
vfix_b#branch                                0
vfix_a2#branch                               0
vin#branch                                   0
vdd#branch                        -3.70541e-12

 Reference value :  6.52129e-08
 Reference value :  1.65878e-07
 Reference value :  2.71543e-07
No. of Data Rows : 68032

  Measurements for Transient Analysis

tphl                =  2.66522e-09 targ=  2.92954e-08 trig=  2.66302e-08
tplh                =  5.55442e-09 targ=  1.07445e-07 trig=  1.01891e-07
i_vdd_avg           =  -6.41017e-07 from=  1.00000e-08 to=  3.30003e-07
power_avg_uw        =  1.13946e+00


Total analysis time (seconds) = 1.12285

Total elapsed time (seconds) = 1.202 

Total DRAM available = 16384.000 MB.
DRAM currently available =  116.797 MB.
Maximum ngspice program size =   15.844 MB.
Current ngspice program size =   15.844 MB.

