
Note: No compatibility mode selected!


Circuit: GF180MCU library cell aoi21_1 A1_to_ZN__A2=1,B=0

Doing analysis at TEMP = 49.552218 and TNOM = 27.000000

Using SPARSE 1.3 as Direct Linear Solver

Initial Transient Solution
--------------------------

Node                                   Voltage
----                                   -------
vdd                                    1.65248
a1                                           0
a2                                     1.65248
b                                            0
xu1.net_0                           9.5073e-11
zn                                     1.65248
xu1.net_1                              1.65248
vfix_b#branch                                0
vfix_a2#branch                               0
vin#branch                                   0
vdd#branch                        -3.34765e-12

 Reference value :  6.70341e-08
 Reference value :  1.77866e-07
 Reference value :  2.80821e-07
No. of Data Rows : 68030

  Measurements for Transient Analysis

tphl                =  1.68727e-09 targ=  2.64156e-08 trig=  2.47283e-08
tplh                =  4.46763e-09 targ=  1.00653e-07 trig=  9.61849e-08
i_vdd_avg           =  -2.65136e-07 from=  1.00000e-08 to=  3.30001e-07
power_avg_uw        =  4.38134e-01


Total analysis time (seconds) = 1.0777

Total elapsed time (seconds) = 1.148 

Total DRAM available = 16384.000 MB.
DRAM currently available =  116.797 MB.
Maximum ngspice program size =   17.078 MB.
Current ngspice program size =   17.078 MB.

