
Note: No compatibility mode selected!


Circuit: GF180MCU library cell nand3_4 A1_to_ZN__A2=1,A3=1

Doing analysis at TEMP = 107.698580 and TNOM = 27.000000

Using SPARSE 1.3 as Direct Linear Solver

Initial Transient Solution
--------------------------

Node                                   Voltage
----                                   -------
vdd                                    1.88776
a1                                           0
a2                                     1.88776
a3                                     1.88776
xu1.net_1_3                         5.7844e-07
xu1.net_0                          1.15688e-06
xu1.net_1_2                         5.7844e-07
xu1.net_1_1                         5.7844e-07
xu1.net_1_0                         5.7844e-07
xu1.net_0_0                        1.15688e-06
zn                                     1.88776
vfix_a3#branch                               0
vfix_a2#branch                               0
vin#branch                                   0
vdd#branch                        -4.72325e-10

 Reference value :  2.85125e-08
 Reference value :  6.03837e-08
 Reference value :  9.04237e-08
 Reference value :  1.22085e-07
 Reference value :  1.50370e-07
 Reference value :  1.83595e-07
 Reference value :  2.13559e-07
 Reference value :  2.42844e-07
 Reference value :  2.72880e-07
 Reference value :  3.03100e-07
 Reference value :  3.31890e-07
No. of Data Rows : 68032

  Measurements for Transient Analysis

tphl                =  9.32255e-11 targ=  2.78438e-08 trig=  2.77506e-08
tplh                =  1.04527e-09 targ=  1.06297e-07 trig=  1.05252e-07
i_vdd_avg           =  -6.14423e-07 from=  1.00000e-08 to=  3.30005e-07
power_avg_uw        =  1.15989e+00


Total analysis time (seconds) = 3.8035

Total elapsed time (seconds) = 3.864 

Total DRAM available = 16384.000 MB.
DRAM currently available =   77.062 MB.
Maximum ngspice program size =   15.984 MB.
Current ngspice program size =   15.984 MB.

