
Note: No compatibility mode selected!


Circuit: GF180MCU library cell xor2_4 A1_to_Z__A2=0

Doing analysis at TEMP = 88.292166 and TNOM = 27.000000

Using SPARSE 1.3 as Direct Linear Solver

Initial Transient Solution
--------------------------

Node                                   Voltage
----                                   -------
vdd                                    1.91967
a1                                           0
a2                                           0
xu1.net_2                            0.0484705
xu1.i                                  1.91967
xu1.net_0                          3.29997e-08
xu1.z_neg                              1.91967
z                                  1.27712e-08
xu1.net_1                              1.91967
vfix_a2#branch                               0
vin#branch                                   0
vdd#branch                        -2.16509e-11

 Reference value :  2.69325e-08
 Reference value :  6.53634e-08
 Reference value :  1.06283e-07
 Reference value :  1.46444e-07
 Reference value :  1.88398e-07
 Reference value :  2.29978e-07
 Reference value :  2.72669e-07
 Reference value :  3.15804e-07
No. of Data Rows : 68032

  Measurements for Transient Analysis

tplh                =  2.55185e-09 targ=  3.10273e-08 trig=  2.84755e-08
tphl                =  3.98344e-09 targ=  1.11410e-07 trig=  1.07426e-07
i_vdd_avg           =  -1.90382e-06 from=  1.00000e-08 to=  3.30004e-07
power_avg_uw        =  3.65471e+00


Total analysis time (seconds) = 2.66043

Total elapsed time (seconds) = 2.730 

Total DRAM available = 16384.000 MB.
DRAM currently available =  121.625 MB.
Maximum ngspice program size =   16.875 MB.
Current ngspice program size =   16.875 MB.

