
Note: No compatibility mode selected!


Circuit: GF180MCU library cell nand2_1 A1_to_ZN__A2=1

Doing analysis at TEMP = 95.891506 and TNOM = 27.000000

Using SPARSE 1.3 as Direct Linear Solver

Initial Transient Solution
--------------------------

Node                                   Voltage
----                                   -------
vdd                                    1.73668
a1                                           0
a2                                     1.73668
xu1.net_0                          2.67306e-08
zn                                     1.73668
vfix_a2#branch                               0
vin#branch                                   0
vdd#branch                        -5.50704e-12

 Reference value :  1.10749e-07
 Reference value :  2.62218e-07
No. of Data Rows : 68032

  Measurements for Transient Analysis

tphl                =  1.05577e-09 targ=  2.89363e-08 trig=  2.78805e-08
tplh                =  2.14719e-09 targ=  1.07789e-07 trig=  1.05641e-07
i_vdd_avg           =  -1.23111e-07 from=  1.00000e-08 to=  3.30004e-07
power_avg_uw        =  2.13805e-01


Total analysis time (seconds) = 0.704448

Total elapsed time (seconds) = 0.788 

Total DRAM available = 16384.000 MB.
DRAM currently available =  183.672 MB.
Maximum ngspice program size =   16.703 MB.
Current ngspice program size =   16.703 MB.

