
Note: No compatibility mode selected!


Circuit: GF180MCU library cell inv_1 I_to_ZN

Doing analysis at TEMP = 98.743619 and TNOM = 27.000000

Using SPARSE 1.3 as Direct Linear Solver

Initial Transient Solution
--------------------------

Node                                   Voltage
----                                   -------
vdd                                    1.73765
i                                            0
zn                                     1.73765
vin#branch                                   0
vdd#branch                        -6.13417e-12

 Reference value :  1.76001e-07
No. of Data Rows : 68030

  Measurements for Transient Analysis

tphl                =  3.60480e-09 targ=  3.28658e-08 trig=  2.92610e-08
tplh                =  6.21717e-09 targ=  1.16000e-07 trig=  1.09783e-07
i_vdd_avg           =  -9.29866e-07 from=  1.00000e-08 to=  3.30001e-07
power_avg_uw        =  1.61578e+00


Total analysis time (seconds) = 0.512475

Total elapsed time (seconds) = 0.568 

Total DRAM available = 16384.000 MB.
DRAM currently available =  114.844 MB.
Maximum ngspice program size =   14.703 MB.
Current ngspice program size =   14.703 MB.

