
Note: No compatibility mode selected!


Circuit: GF180MCU library cell mux2_1 I0_to_Z__I1=0,S=0

Doing analysis at TEMP = 86.077872 and TNOM = 27.000000

Using SPARSE 1.3 as Direct Linear Solver

Initial Transient Solution
--------------------------

Node                                   Voltage
----                                   -------
vdd                                    1.92676
i0                                           0
i1                                           0
s                                            0
xu1.int04                              1.92676
z                                  1.26531e-08
xu1.net_1                            0.0482422
xu1.net_3                              1.44646
xu1.sel1_n                             1.92676
xu1.net_0                              1.92676
xu1.net_2                              1.92676
vfix_s#branch                                0
vfix_i1#branch                               0
vin#branch                                   0
vdd#branch                         -2.8871e-11

 Reference value :  5.38383e-08
 Reference value :  1.15269e-07
 Reference value :  1.70374e-07
 Reference value :  2.28518e-07
 Reference value :  2.81369e-07
 Reference value :  3.39949e-07
No. of Data Rows : 68032

  Measurements for Transient Analysis

tplh                =  2.06084e-09 targ=  2.93563e-08 trig=  2.72954e-08
tphl                =  2.83278e-09 targ=  1.06719e-07 trig=  1.03886e-07
i_vdd_avg           =  -5.95902e-07 from=  1.00000e-08 to=  3.30004e-07
power_avg_uw        =  1.14816e+00


Total analysis time (seconds) = 1.81881

Total elapsed time (seconds) = 1.886 

Total DRAM available = 16384.000 MB.
DRAM currently available =   87.844 MB.
Maximum ngspice program size =   16.781 MB.
Current ngspice program size =   16.781 MB.

