
Note: No compatibility mode selected!


Circuit: GF180MCU library cell nand3_1 A1_to_ZN__A2=1,A3=1

Doing analysis at TEMP = 103.064320 and TNOM = 27.000000

Using SPARSE 1.3 as Direct Linear Solver

Initial Transient Solution
--------------------------

Node                                   Voltage
----                                   -------
vdd                                    1.72319
a1                                           0
a2                                     1.72319
a3                                     1.72319
xu1.net_1                           4.7399e-07
xu1.net_0                           9.4798e-07
zn                                     1.72318
vfix_a3#branch                               0
vfix_a2#branch                               0
vin#branch                                   0
vdd#branch                        -8.90645e-11

 Reference value :  7.33850e-08
 Reference value :  1.82608e-07
 Reference value :  2.81618e-07
No. of Data Rows : 68034

  Measurements for Transient Analysis

tphl                =  8.78171e-10 targ=  2.50719e-08 trig=  2.41938e-08
tplh                =  9.61127e-10 targ=  9.55424e-08 trig=  9.45813e-08
i_vdd_avg           =  -2.96455e-07 from=  1.00000e-08 to=  3.30003e-07
power_avg_uw        =  5.10848e-01


Total analysis time (seconds) = 1.07108

Total elapsed time (seconds) = 1.154 

Total DRAM available = 16384.000 MB.
DRAM currently available =  108.312 MB.
Maximum ngspice program size =   17.578 MB.
Current ngspice program size =   17.578 MB.

