
Note: No compatibility mode selected!


Circuit: GF180MCU library cell nand3_1 A1_to_ZN__A2=1,A3=1

Doing analysis at TEMP = 42.577532 and TNOM = 27.000000

Using SPARSE 1.3 as Direct Linear Solver

Initial Transient Solution
--------------------------

Node                                   Voltage
----                                   -------
vdd                                    1.92502
a1                                           0
a2                                     1.92502
a3                                     1.92502
xu1.net_1                          1.47403e-08
xu1.net_0                          2.94806e-08
zn                                     1.92502
vfix_a3#branch                               0
vfix_a2#branch                               0
vin#branch                                   0
vdd#branch                        -5.49345e-12

 Reference value :  8.83909e-08
 Reference value :  1.94891e-07
 Reference value :  2.92539e-07
No. of Data Rows : 68034

  Measurements for Transient Analysis

tphl                =  4.92231e-09 targ=  2.96515e-08 trig=  2.47292e-08
tplh                =  5.44156e-09 targ=  1.01629e-07 trig=  9.61876e-08
i_vdd_avg           =  -2.48024e-06 from=  1.00000e-08 to=  3.30004e-07
power_avg_uw        =  4.77451e+00


Total analysis time (seconds) = 1.03062

Total elapsed time (seconds) = 1.103 

Total DRAM available = 16384.000 MB.
DRAM currently available =  114.172 MB.
Maximum ngspice program size =   15.234 MB.
Current ngspice program size =   15.234 MB.

