
Note: No compatibility mode selected!


Circuit: GF180MCU library cell nor2_4 A1_to_ZN__A2=0

Doing analysis at TEMP = 28.137055 and TNOM = 27.000000

Using SPARSE 1.3 as Direct Linear Solver

Initial Transient Solution
--------------------------

Node                                   Voltage
----                                   -------
vdd                                    1.91134
a1                                           0
a2                                           0
zn                                     1.91134
xu1.net_0_0                            1.91134
xu1.net_0_1                            1.91134
xu1.net_0_2                            1.91134
xu1.net_0_3                            1.91134
vfix_a2#branch                               0
vin#branch                                   0
vdd#branch                        -2.63823e-11

 Reference value :  4.14895e-08
 Reference value :  9.13695e-08
 Reference value :  1.40671e-07
 Reference value :  1.83806e-07
 Reference value :  2.32224e-07
 Reference value :  2.82436e-07
 Reference value :  3.26621e-07
No. of Data Rows : 68030

  Measurements for Transient Analysis

tphl                =  1.63818e-09 targ=  3.04442e-08 trig=  2.88060e-08
tplh                =  4.15012e-09 targ=  1.12568e-07 trig=  1.08418e-07
i_vdd_avg           =  -2.51998e-06 from=  1.00000e-08 to=  3.30001e-07
power_avg_uw        =  4.81654e+00


Total analysis time (seconds) = 2.35451

Total elapsed time (seconds) = 2.413 

Total DRAM available = 16384.000 MB.
DRAM currently available =   92.250 MB.
Maximum ngspice program size =   15.422 MB.
Current ngspice program size =   15.422 MB.

