
Note: No compatibility mode selected!


Circuit: GF180MCU library cell xor2_4 A1_to_Z__A2=0

Doing analysis at TEMP = 107.276380 and TNOM = 27.000000

Using SPARSE 1.3 as Direct Linear Solver

Initial Transient Solution
--------------------------

Node                                   Voltage
----                                   -------
vdd                                    1.67671
a1                                           0
a2                                           0
xu1.net_2                             0.052038
xu1.i                                  1.67671
xu1.net_0                          1.16602e-06
xu1.z_neg                               1.6767
z                                  2.24702e-08
xu1.net_1                              1.67671
vfix_a2#branch                               0
vin#branch                                   0
vdd#branch                        -2.76383e-10

 Reference value :  2.69625e-08
 Reference value :  6.63758e-08
 Reference value :  1.11136e-07
 Reference value :  1.52789e-07
 Reference value :  1.92983e-07
 Reference value :  2.35506e-07
 Reference value :  2.75314e-07
 Reference value :  3.18229e-07
No. of Data Rows : 68034

  Measurements for Transient Analysis

tplh                =  1.31116e-09 targ=  3.00803e-08 trig=  2.87692e-08
tphl                =  3.14225e-09 targ=  1.11450e-07 trig=  1.08308e-07
i_vdd_avg           =  -6.99094e-07 from=  1.00000e-08 to=  3.30004e-07
power_avg_uw        =  1.17218e+00


Total analysis time (seconds) = 2.63775

Total elapsed time (seconds) = 2.708 

Total DRAM available = 16384.000 MB.
DRAM currently available =  131.625 MB.
Maximum ngspice program size =   16.172 MB.
Current ngspice program size =   16.172 MB.

