
Note: No compatibility mode selected!


Circuit: GF180MCU library cell nor2_4 A1_to_ZN__A2=0

Doing analysis at TEMP = 72.868920 and TNOM = 27.000000

Using SPARSE 1.3 as Direct Linear Solver

Initial Transient Solution
--------------------------

Node                                   Voltage
----                                   -------
vdd                                    1.93637
a1                                           0
a2                                           0
zn                                     1.93637
xu1.net_0_0                            1.93637
xu1.net_0_1                            1.93637
xu1.net_0_2                            1.93637
xu1.net_0_3                            1.93637
vfix_a2#branch                               0
vin#branch                                   0
vdd#branch                         -1.8667e-10

 Reference value :  3.72936e-08
 Reference value :  8.16586e-08
 Reference value :  1.31130e-07
 Reference value :  1.77590e-07
 Reference value :  2.22074e-07
 Reference value :  2.68784e-07
 Reference value :  3.15690e-07
No. of Data Rows : 68032

  Measurements for Transient Analysis

tphl                =  1.48796e-09 targ=  3.05360e-08 trig=  2.90481e-08
tplh                =  4.07445e-09 targ=  1.13219e-07 trig=  1.09144e-07
i_vdd_avg           =  -2.45121e-06 from=  1.00000e-08 to=  3.30005e-07
power_avg_uw        =  4.74645e+00


Total analysis time (seconds) = 2.38067

Total elapsed time (seconds) = 2.441 

Total DRAM available = 16384.000 MB.
DRAM currently available =  131.219 MB.
Maximum ngspice program size =   15.484 MB.
Current ngspice program size =   15.484 MB.

