
Note: No compatibility mode selected!


Circuit: GF180MCU library cell nor2_4 A1_to_ZN__A2=0

Doing analysis at TEMP = 77.865340 and TNOM = 27.000000

Using SPARSE 1.3 as Direct Linear Solver

Initial Transient Solution
--------------------------

Node                                   Voltage
----                                   -------
vdd                                    1.69736
a1                                           0
a2                                           0
zn                                     1.69736
xu1.net_0_0                            1.69736
xu1.net_0_1                            1.69736
xu1.net_0_2                            1.69736
xu1.net_0_3                            1.69736
vfix_a2#branch                               0
vin#branch                                   0
vdd#branch                        -2.46225e-11

 Reference value :  4.78529e-08
 Reference value :  1.05713e-07
 Reference value :  1.53933e-07
 Reference value :  2.03863e-07
 Reference value :  2.49378e-07
 Reference value :  2.95163e-07
No. of Data Rows : 68032

  Measurements for Transient Analysis

tphl                =  7.98157e-10 targ=  2.69209e-08 trig=  2.61227e-08
tplh                =  1.81242e-09 targ=  1.02181e-07 trig=  1.00368e-07
i_vdd_avg           =  -3.71050e-07 from=  1.00000e-08 to=  3.30003e-07
power_avg_uw        =  6.29807e-01


Total analysis time (seconds) = 2.15957

Total elapsed time (seconds) = 2.219 

Total DRAM available = 16384.000 MB.
DRAM currently available =  133.500 MB.
Maximum ngspice program size =   13.953 MB.
Current ngspice program size =   13.953 MB.

