
Note: No compatibility mode selected!


Circuit: GF180MCU library cell oai21_1 A1_to_ZN__A2=0,B=1

Doing analysis at TEMP = 97.644370 and TNOM = 27.000000

Using SPARSE 1.3 as Direct Linear Solver

Initial Transient Solution
--------------------------

Node                                   Voltage
----                                   -------
vdd                                    1.70424
a1                                           0
a2                                           0
b                                      1.70424
zn                                     1.70423
xu1.net_0                           7.3063e-07
xu1.net_1                              1.70423
vfix_b#branch                                0
vfix_a2#branch                               0
vin#branch                                   0
vdd#branch                        -1.38062e-10

 Reference value :  1.02472e-07
 Reference value :  2.22842e-07
 Reference value :  3.22771e-07
No. of Data Rows : 68032

  Measurements for Transient Analysis

tphl                =  3.57024e-09 targ=  3.14600e-08 trig=  2.78897e-08
tplh                =  7.43411e-09 targ=  1.13103e-07 trig=  1.05669e-07
i_vdd_avg           =  -1.15918e-06 from=  1.00000e-08 to=  3.30001e-07
power_avg_uw        =  1.97551e+00


Total analysis time (seconds) = 1.00014

Total elapsed time (seconds) = 1.060 

Total DRAM available = 16384.000 MB.
DRAM currently available =  120.594 MB.
Maximum ngspice program size =   13.391 MB.
Current ngspice program size =   13.391 MB.

