
Note: No compatibility mode selected!


Circuit: GF180MCU library cell nor2_4 A1_to_ZN__A2=0

Doing analysis at TEMP = 2.736950 and TNOM = 27.000000

Using SPARSE 1.3 as Direct Linear Solver

Initial Transient Solution
--------------------------

Node                                   Voltage
----                                   -------
vdd                                    1.89009
a1                                           0
a2                                           0
zn                                     1.89009
xu1.net_0_0                            1.89009
xu1.net_0_1                            1.89009
xu1.net_0_2                            1.89009
xu1.net_0_3                            1.89009
vfix_a2#branch                               0
vin#branch                                   0
vdd#branch                        -1.52021e-11

 Reference value :  3.33368e-08
 Reference value :  7.98018e-08
 Reference value :  1.27471e-07
 Reference value :  1.72961e-07
 Reference value :  2.20227e-07
 Reference value :  2.67057e-07
 Reference value :  3.15656e-07
No. of Data Rows : 68032

  Measurements for Transient Analysis

tphl                =  3.66550e-09 targ=  3.23176e-08 trig=  2.86521e-08
tplh                =  7.29859e-09 targ=  1.15255e-07 trig=  1.07956e-07
i_vdd_avg           =  -2.15991e-06 from=  1.00000e-08 to=  3.30001e-07
power_avg_uw        =  4.08243e+00


Total analysis time (seconds) = 2.39514

Total elapsed time (seconds) = 2.468 

Total DRAM available = 16384.000 MB.
DRAM currently available =  118.375 MB.
Maximum ngspice program size =   17.828 MB.
Current ngspice program size =   17.828 MB.

