
Note: No compatibility mode selected!


Circuit: GF180MCU library cell inv_1 I_to_ZN

Doing analysis at TEMP = 67.746388 and TNOM = 27.000000

Using SPARSE 1.3 as Direct Linear Solver

Initial Transient Solution
--------------------------

Node                                   Voltage
----                                   -------
vdd                                    1.64187
i                                            0
zn                                     1.64187
vin#branch                                   0
vdd#branch                        -2.33977e-12

 Reference value :  1.67783e-07
No. of Data Rows : 68032

  Measurements for Transient Analysis

tphl                =  2.30276e-09 targ=  2.76828e-08 trig=  2.53800e-08
tplh                =  4.81942e-09 targ=  1.02959e-07 trig=  9.81400e-08
i_vdd_avg           =  -9.69794e-07 from=  1.00000e-08 to=  3.30003e-07
power_avg_uw        =  1.59228e+00


Total analysis time (seconds) = 0.522595

Total elapsed time (seconds) = 0.634 

Total DRAM available = 16384.000 MB.
DRAM currently available =  145.141 MB.
Maximum ngspice program size =   18.109 MB.
Current ngspice program size =   18.109 MB.

