
Note: No compatibility mode selected!


Circuit: GF180MCU library cell xor2_1 A1_to_Z__A2=0

Doing analysis at TEMP = 5.486047 and TNOM = 27.000000

Using SPARSE 1.3 as Direct Linear Solver

Initial Transient Solution
--------------------------

Node                                   Voltage
----                                   -------
vdd                                     1.7268
a1                                           0
a2                                           0
xu1.i                                   1.7268
z                                   3.6001e-08
xu1.net_0                           6.7103e-10
xu1.net_2                               1.7268
xu1.net_1                             0.765367
vfix_a2#branch                               0
vin#branch                                   0
vdd#branch                        -9.92472e-12

 Reference value :  4.87566e-08
 Reference value :  1.18146e-07
 Reference value :  1.86203e-07
 Reference value :  2.59247e-07
 Reference value :  3.34926e-07
No. of Data Rows : 68032

  Measurements for Transient Analysis

tplh                =  2.56108e-09 targ=  3.13331e-08 trig=  2.87720e-08
tphl                =  3.33830e-09 targ=  1.11654e-07 trig=  1.08316e-07
i_vdd_avg           =  -3.22964e-07 from=  1.00000e-08 to=  3.30001e-07
power_avg_uw        =  5.57695e-01


Total analysis time (seconds) = 1.55206

Total elapsed time (seconds) = 1.627 

Total DRAM available = 16384.000 MB.
DRAM currently available =  128.922 MB.
Maximum ngspice program size =   17.547 MB.
Current ngspice program size =   17.547 MB.

