
Note: No compatibility mode selected!


Circuit: GF180MCU library cell inv_4 I_to_ZN

Doing analysis at TEMP = -12.341924 and TNOM = 27.000000

Using SPARSE 1.3 as Direct Linear Solver

Initial Transient Solution
--------------------------

Node                                   Voltage
----                                   -------
vdd                                    1.66183
i                                            0
zn                                     1.66183
vin#branch                                   0
vdd#branch                        -6.68741e-12

 Reference value :  6.91297e-08
 Reference value :  1.69402e-07
 Reference value :  2.73250e-07
No. of Data Rows : 68030

  Measurements for Transient Analysis

tphl                =  3.26578e-09 targ=  3.24994e-08 trig=  2.92336e-08
tplh                =  5.39503e-09 targ=  1.15096e-07 trig=  1.09701e-07
i_vdd_avg           =  -1.00071e-06 from=  1.00000e-08 to=  3.30002e-07
power_avg_uw        =  1.66300e+00


Total analysis time (seconds) = 1.13696

Total elapsed time (seconds) = 1.187 

Total DRAM available = 16384.000 MB.
DRAM currently available =  126.062 MB.
Maximum ngspice program size =   15.797 MB.
Current ngspice program size =   15.797 MB.

