
Note: No compatibility mode selected!


Circuit: GF180MCU library cell aoi21_1 A1_to_ZN__A2=1,B=0

Doing analysis at TEMP = 7.637648 and TNOM = 27.000000

Using SPARSE 1.3 as Direct Linear Solver

Initial Transient Solution
--------------------------

Node                                   Voltage
----                                   -------
vdd                                    1.78529
a1                                           0
a2                                     1.78529
b                                            0
xu1.net_0                          1.05468e-09
zn                                     1.78529
xu1.net_1                              1.78529
vfix_b#branch                                0
vfix_a2#branch                               0
vin#branch                                   0
vdd#branch                        -4.16215e-12

 Reference value :  6.62585e-08
 Reference value :  1.71060e-07
 Reference value :  2.80055e-07
No. of Data Rows : 68032

  Measurements for Transient Analysis

tphl                =  8.55436e-10 targ=  2.82185e-08 trig=  2.73630e-08
tplh                =  2.34880e-09 targ=  1.06438e-07 trig=  1.04089e-07
i_vdd_avg           =  -2.32731e-07 from=  1.00000e-08 to=  3.30005e-07
power_avg_uw        =  4.15493e-01


Total analysis time (seconds) = 1.0564

Total elapsed time (seconds) = 1.113 

Total DRAM available = 16384.000 MB.
DRAM currently available =  140.844 MB.
Maximum ngspice program size =   13.812 MB.
Current ngspice program size =   13.672 MB.

