
Note: No compatibility mode selected!


Circuit: GF180MCU library cell xor2_4 A1_to_Z__A2=0

Doing analysis at TEMP = 57.009090 and TNOM = 27.000000

Using SPARSE 1.3 as Direct Linear Solver

Initial Transient Solution
--------------------------

Node                                   Voltage
----                                   -------
vdd                                    1.94132
a1                                           0
a2                                           0
xu1.net_2                            0.0415998
xu1.i                                  1.94132
xu1.net_0                          4.37007e-09
xu1.z_neg                              1.94132
z                                  1.15265e-08
xu1.net_1                              1.94132
vfix_a2#branch                               0
vin#branch                                   0
vdd#branch                        -1.52778e-11

 Reference value :  3.24857e-08
 Reference value :  7.17507e-08
 Reference value :  1.15809e-07
 Reference value :  1.57274e-07
 Reference value :  2.02371e-07
 Reference value :  2.42766e-07
 Reference value :  2.81114e-07
 Reference value :  3.23849e-07
No. of Data Rows : 68034

  Measurements for Transient Analysis

tplh                =  1.73175e-09 targ=  2.70983e-08 trig=  2.53666e-08
tphl                =  2.30356e-09 targ=  1.00403e-07 trig=  9.80998e-08
i_vdd_avg           =  -1.31853e-06 from=  1.00000e-08 to=  3.30004e-07
power_avg_uw        =  2.55970e+00


Total analysis time (seconds) = 2.59817

Total elapsed time (seconds) = 2.667 

Total DRAM available = 16384.000 MB.
DRAM currently available =  102.312 MB.
Maximum ngspice program size =   18.062 MB.
Current ngspice program size =   18.062 MB.

