
Note: No compatibility mode selected!


Circuit: GF180MCU library cell xor2_4 A1_to_Z__A2=0

Doing analysis at TEMP = -1.063944 and TNOM = 27.000000

Using SPARSE 1.3 as Direct Linear Solver

Initial Transient Solution
--------------------------

Node                                   Voltage
----                                   -------
vdd                                    1.72251
a1                                           0
a2                                           0
xu1.net_2                          0.000399763
xu1.i                                  1.72251
xu1.net_0                          1.36959e-12
xu1.z_neg                              1.72251
z                                  1.41924e-08
xu1.net_1                              1.72251
vfix_a2#branch                               0
vin#branch                                   0
vdd#branch                        -1.24058e-11

 Reference value :  3.32161e-08
 Reference value :  7.81911e-08
 Reference value :  1.21085e-07
 Reference value :  1.64025e-07
 Reference value :  2.05741e-07
 Reference value :  2.42756e-07
 Reference value :  2.84860e-07
 Reference value :  3.26720e-07
No. of Data Rows : 68034

  Measurements for Transient Analysis

tplh                =  4.16977e-09 targ=  3.03091e-08 trig=  2.61393e-08
tphl                =  4.97169e-09 targ=  1.05390e-07 trig=  1.00418e-07
i_vdd_avg           =  -1.55767e-06 from=  1.00000e-08 to=  3.30005e-07
power_avg_uw        =  2.68310e+00


Total analysis time (seconds) = 2.58623

Total elapsed time (seconds) = 2.662 

Total DRAM available = 16384.000 MB.
DRAM currently available =   67.094 MB.
Maximum ngspice program size =   16.500 MB.
Current ngspice program size =   16.500 MB.

