
Note: No compatibility mode selected!


Circuit: GF180MCU library cell nand2_1 A1_to_ZN__A2=1

Doing analysis at TEMP = 122.542250 and TNOM = 27.000000

Using SPARSE 1.3 as Direct Linear Solver

Initial Transient Solution
--------------------------

Node                                   Voltage
----                                   -------
vdd                                    1.91673
a1                                           0
a2                                     1.91673
xu1.net_0                          1.12597e-06
zn                                     1.91673
vfix_a2#branch                               0
vin#branch                                   0
vdd#branch                        -2.23949e-10

 Reference value :  1.09502e-07
 Reference value :  2.74942e-07
No. of Data Rows : 68032

  Measurements for Transient Analysis

tphl                =  4.24310e-09 targ=  3.41905e-08 trig=  2.99474e-08
tplh                =  6.07254e-09 targ=  1.17915e-07 trig=  1.11842e-07
i_vdd_avg           =  -1.70942e-06 from=  1.00000e-08 to=  3.30002e-07
power_avg_uw        =  3.27650e+00


Total analysis time (seconds) = 0.64572

Total elapsed time (seconds) = 0.765 

Total DRAM available = 16384.000 MB.
DRAM currently available =  120.531 MB.
Maximum ngspice program size =   17.312 MB.
Current ngspice program size =   17.312 MB.

