
Note: No compatibility mode selected!


Circuit: GF180MCU library cell nor2_1 A1_to_ZN__A2=0

Doing analysis at TEMP = -15.426895 and TNOM = 27.000000

Using SPARSE 1.3 as Direct Linear Solver

Initial Transient Solution
--------------------------

Node                                   Voltage
----                                   -------
vdd                                    1.91156
a1                                           0
a2                                           0
zn                                     1.91156
xu1.net_0                              1.91156
vfix_a2#branch                               0
vin#branch                                   0
vdd#branch                        -3.84481e-12

 Reference value :  1.61607e-07
 Reference value :  3.15487e-07
No. of Data Rows : 68030

  Measurements for Transient Analysis

tphl                =  3.51585e-09 targ=  2.79544e-08 trig=  2.44385e-08
tplh                =  1.13466e-08 targ=  1.06662e-07 trig=  9.53156e-08
i_vdd_avg           =  -2.36893e-06 from=  1.00000e-08 to=  3.30002e-07
power_avg_uw        =  4.52835e+00


Total analysis time (seconds) = 0.717324

Total elapsed time (seconds) = 0.776 

Total DRAM available = 16384.000 MB.
DRAM currently available =   93.203 MB.
Maximum ngspice program size =   12.828 MB.
Current ngspice program size =   12.656 MB.

