
Note: No compatibility mode selected!


Circuit: GF180MCU library cell nor2_4 A1_to_ZN__A2=0

Doing analysis at TEMP = 44.386464 and TNOM = 27.000000

Using SPARSE 1.3 as Direct Linear Solver

Initial Transient Solution
--------------------------

Node                                   Voltage
----                                   -------
vdd                                    1.62167
a1                                           0
a2                                           0
zn                                     1.62167
xu1.net_0_0                            1.62167
xu1.net_0_1                            1.62167
xu1.net_0_2                            1.62167
xu1.net_0_3                            1.62167
vfix_a2#branch                               0
vin#branch                                   0
vdd#branch                        -4.12173e-11

 Reference value :  3.10925e-08
 Reference value :  7.96205e-08
 Reference value :  1.26154e-07
 Reference value :  1.74769e-07
 Reference value :  2.22831e-07
 Reference value :  2.71214e-07
 Reference value :  3.20954e-07
No. of Data Rows : 68034

  Measurements for Transient Analysis

tphl                =  1.56412e-09 targ=  2.97181e-08 trig=  2.81540e-08
tplh                =  3.82116e-09 targ=  1.10283e-07 trig=  1.06462e-07
i_vdd_avg           =  -1.34742e-06 from=  1.00000e-08 to=  3.30004e-07
power_avg_uw        =  2.18507e+00


Total analysis time (seconds) = 2.26883

Total elapsed time (seconds) = 2.360 

Total DRAM available = 16384.000 MB.
DRAM currently available =  134.375 MB.
Maximum ngspice program size =   19.016 MB.
Current ngspice program size =   19.016 MB.

