
Note: No compatibility mode selected!


Circuit: GF180MCU library cell xor2_4 A1_to_Z__A2=0

Doing analysis at TEMP = 102.885910 and TNOM = 27.000000

Using SPARSE 1.3 as Direct Linear Solver

Initial Transient Solution
--------------------------

Node                                   Voltage
----                                   -------
vdd                                    1.85704
a1                                           0
a2                                           0
xu1.net_2                            0.0393139
xu1.i                                  1.85704
xu1.net_0                          7.38955e-09
xu1.z_neg                              1.85704
z                                  1.81836e-08
xu1.net_1                              1.85704
vfix_a2#branch                               0
vin#branch                                   0
vdd#branch                        -1.48492e-11

 Reference value :  4.00647e-08
 Reference value :  8.45697e-08
 Reference value :  1.25987e-07
 Reference value :  1.68127e-07
 Reference value :  2.07810e-07
 Reference value :  2.49055e-07
 Reference value :  2.91407e-07
 Reference value :  3.33722e-07
No. of Data Rows : 68030

  Measurements for Transient Analysis

tplh                =  4.27302e-09 targ=  3.15991e-08 trig=  2.73261e-08
tphl                =  5.21981e-09 targ=  1.09198e-07 trig=  1.03978e-07
i_vdd_avg           =  -1.85047e-06 from=  1.00000e-08 to=  3.30002e-07
power_avg_uw        =  3.43641e+00


Total analysis time (seconds) = 2.44763

Total elapsed time (seconds) = 2.512 

Total DRAM available = 16384.000 MB.
DRAM currently available =  121.625 MB.
Maximum ngspice program size =   14.391 MB.
Current ngspice program size =   14.391 MB.

