
Note: No compatibility mode selected!


Circuit: GF180MCU library cell oai21_4 A1_to_ZN__A2=0,B=1

Doing analysis at TEMP = 92.412047 and TNOM = 27.000000

Using SPARSE 1.3 as Direct Linear Solver

Initial Transient Solution
--------------------------

Node                                   Voltage
----                                   -------
vdd                                    1.86409
a1                                           0
a2                                           0
b                                      1.86409
zn                                     1.86408
xu1.net_0                          5.50627e-07
xu1.net_1_0                            1.86408
xu1.net_1_1                            1.86408
xu1.net_1_2                            1.86408
xu1.net_1_3                            1.86408
vfix_b#branch                                0
vfix_a2#branch                               0
vin#branch                                   0
vdd#branch                        -4.67607e-10

 Reference value :  2.86210e-08
 Reference value :  6.21210e-08
 Reference value :  9.15160e-08
 Reference value :  1.17325e-07
 Reference value :  1.49615e-07
 Reference value :  1.81220e-07
 Reference value :  2.12576e-07
 Reference value :  2.44251e-07
 Reference value :  2.78580e-07
 Reference value :  3.11245e-07
No. of Data Rows : 68034

  Measurements for Transient Analysis

tphl                =  1.55447e-09 targ=  2.77412e-08 trig=  2.61868e-08
tplh                =  3.41839e-09 targ=  1.03979e-07 trig=  1.00560e-07
i_vdd_avg           =  -2.32663e-06 from=  1.00000e-08 to=  3.30005e-07
power_avg_uw        =  4.33703e+00


Total analysis time (seconds) = 3.45156

Total elapsed time (seconds) = 3.521 

Total DRAM available = 16384.000 MB.
DRAM currently available =  129.953 MB.
Maximum ngspice program size =   15.656 MB.
Current ngspice program size =   15.656 MB.

