
Note: No compatibility mode selected!


Circuit: GF180MCU library cell nand2_1 A1_to_ZN__A2=1

Doing analysis at TEMP = 4.509191 and TNOM = 27.000000

Using SPARSE 1.3 as Direct Linear Solver

Initial Transient Solution
--------------------------

Node                                   Voltage
----                                   -------
vdd                                     1.7867
a1                                           0
a2                                      1.7867
xu1.net_0                          1.23909e-12
zn                                      1.7867
vfix_a2#branch                               0
vin#branch                                   0
vdd#branch                        -1.79686e-12

 Reference value :  1.17970e-07
 Reference value :  2.90530e-07
No. of Data Rows : 68032

  Measurements for Transient Analysis

tphl                =  6.44763e-09 targ=  3.57857e-08 trig=  2.93381e-08
tplh                =  9.24144e-09 targ=  1.19256e-07 trig=  1.10014e-07
i_vdd_avg           =  -1.04513e-06 from=  1.00000e-08 to=  3.30005e-07
power_avg_uw        =  1.86734e+00


Total analysis time (seconds) = 0.661012

Total elapsed time (seconds) = 0.741 

Total DRAM available = 16384.000 MB.
DRAM currently available =  119.094 MB.
Maximum ngspice program size =   17.469 MB.
Current ngspice program size =   17.469 MB.

