
Note: No compatibility mode selected!


Circuit: GF180MCU library cell inv_4 I_to_ZN

Doing analysis at TEMP = -3.752058 and TNOM = 27.000000

Using SPARSE 1.3 as Direct Linear Solver

Initial Transient Solution
--------------------------

Node                                   Voltage
----                                   -------
vdd                                    1.90148
i                                            0
zn                                     1.90148
vin#branch                                   0
vdd#branch                        -7.65572e-12

 Reference value :  6.43697e-08
 Reference value :  1.59722e-07
 Reference value :  2.60375e-07
No. of Data Rows : 68030

  Measurements for Transient Analysis

tphl                =  1.40893e-09 targ=  2.97700e-08 trig=  2.83611e-08
tplh                =  3.02075e-09 targ=  1.10104e-07 trig=  1.07083e-07
i_vdd_avg           =  -1.25210e-06 from=  1.00000e-08 to=  3.30002e-07
power_avg_uw        =  2.38085e+00


Total analysis time (seconds) = 1.18336

Total elapsed time (seconds) = 1.244 

Total DRAM available = 16384.000 MB.
DRAM currently available =  127.641 MB.
Maximum ngspice program size =   18.094 MB.
Current ngspice program size =   18.094 MB.

