
Note: No compatibility mode selected!


Circuit: GF180MCU library cell nor2_4 A1_to_ZN__A2=0

Doing analysis at TEMP = 61.160606 and TNOM = 27.000000

Using SPARSE 1.3 as Direct Linear Solver

Initial Transient Solution
--------------------------

Node                                   Voltage
----                                   -------
vdd                                    1.64973
a1                                           0
a2                                           0
zn                                     1.64973
xu1.net_0_0                            1.64973
xu1.net_0_1                            1.64973
xu1.net_0_2                            1.64973
xu1.net_0_3                            1.64973
vfix_a2#branch                               0
vin#branch                                   0
vdd#branch                        -1.70893e-11

 Reference value :  4.50769e-08
 Reference value :  1.04552e-07
 Reference value :  1.48491e-07
 Reference value :  1.91303e-07
 Reference value :  2.41797e-07
 Reference value :  2.89426e-07
 Reference value :  3.38261e-07
No. of Data Rows : 68032

  Measurements for Transient Analysis

tphl                =  3.18762e-09 targ=  3.26198e-08 trig=  2.94322e-08
tplh                =  6.63452e-09 targ=  1.16931e-07 trig=  1.10297e-07
i_vdd_avg           =  -1.73417e-06 from=  1.00000e-08 to=  3.30001e-07
power_avg_uw        =  2.86091e+00


Total analysis time (seconds) = 2.13097

Total elapsed time (seconds) = 2.194 

Total DRAM available = 16384.000 MB.
DRAM currently available =  123.906 MB.
Maximum ngspice program size =   12.891 MB.
Current ngspice program size =   12.891 MB.

