
Note: No compatibility mode selected!


Circuit: GF180MCU library cell nand2_4 A1_to_ZN__A2=1

Doing analysis at TEMP = 45.593865 and TNOM = 27.000000

Using SPARSE 1.3 as Direct Linear Solver

Initial Transient Solution
--------------------------

Node                                   Voltage
----                                   -------
vdd                                     1.9141
a1                                           0
a2                                      1.9141
xu1.net_0_0                         1.8065e-08
zn                                      1.9141
xu1.net_0_1                         1.8065e-08
xu1.net_0_2                         1.8065e-08
xu1.net_0_3                         1.8065e-08
vfix_a2#branch                               0
vin#branch                                   0
vdd#branch                        -2.48939e-11

 Reference value :  3.06772e-08
 Reference value :  8.47172e-08
 Reference value :  1.34227e-07
 Reference value :  1.86903e-07
 Reference value :  2.35572e-07
 Reference value :  2.81287e-07
 Reference value :  3.33197e-07
No. of Data Rows : 68032

  Measurements for Transient Analysis

tphl                =  1.60259e-09 targ=  2.83799e-08 trig=  2.67774e-08
tplh                =  2.49336e-09 targ=  1.04825e-07 trig=  1.02332e-07
i_vdd_avg           =  -2.50154e-06 from=  1.00000e-08 to=  3.30002e-07
power_avg_uw        =  4.78821e+00


Total analysis time (seconds) = 2.31182

Total elapsed time (seconds) = 2.389 

Total DRAM available = 16384.000 MB.
DRAM currently available =  111.484 MB.
Maximum ngspice program size =   16.516 MB.
Current ngspice program size =   16.516 MB.

