
Note: No compatibility mode selected!


Circuit: GF180MCU library cell xor2_4 A1_to_Z__A2=0

Doing analysis at TEMP = 25.387585 and TNOM = 27.000000

Using SPARSE 1.3 as Direct Linear Solver

Initial Transient Solution
--------------------------

Node                                   Voltage
----                                   -------
vdd                                     1.8045
a1                                           0
a2                                           0
xu1.net_2                            0.0435876
xu1.i                                   1.8045
xu1.net_0                          8.74152e-09
xu1.z_neg                               1.8045
z                                  8.16555e-09
xu1.net_1                               1.8045
vfix_a2#branch                               0
vin#branch                                   0
vdd#branch                        -1.58588e-11

 Reference value :  3.09323e-08
 Reference value :  7.35623e-08
 Reference value :  1.14012e-07
 Reference value :  1.54887e-07
 Reference value :  1.95037e-07
 Reference value :  2.35777e-07
 Reference value :  2.77322e-07
 Reference value :  3.20957e-07
No. of Data Rows : 68032

  Measurements for Transient Analysis

tplh                =  1.90852e-09 targ=  2.85909e-08 trig=  2.66824e-08
tphl                =  2.67663e-09 targ=  1.04724e-07 trig=  1.02047e-07
i_vdd_avg           =  -2.35388e-06 from=  1.00000e-08 to=  3.30002e-07
power_avg_uw        =  4.24758e+00


Total analysis time (seconds) = 2.63065

Total elapsed time (seconds) = 2.697 

Total DRAM available = 16384.000 MB.
DRAM currently available =  128.172 MB.
Maximum ngspice program size =   16.234 MB.
Current ngspice program size =   16.234 MB.

