
Note: No compatibility mode selected!


Circuit: GF180MCU library cell inv_1 I_to_ZN

Doing analysis at TEMP = 84.375925 and TNOM = 27.000000

Using SPARSE 1.3 as Direct Linear Solver

Initial Transient Solution
--------------------------

Node                                   Voltage
----                                   -------
vdd                                    1.88993
i                                            0
zn                                     1.88993
vin#branch                                   0
vdd#branch                        -2.02913e-12

 Reference value :  1.95444e-07
No. of Data Rows : 68032

  Measurements for Transient Analysis

tphl                =  5.96349e-10 targ=  2.51194e-08 trig=  2.45231e-08
tplh                =  1.07355e-09 targ=  9.66428e-08 trig=  9.55693e-08
i_vdd_avg           =  -1.70420e-07 from=  1.00000e-08 to=  3.30005e-07
power_avg_uw        =  3.22082e-01


Total analysis time (seconds) = 0.460277

Total elapsed time (seconds) = 0.522 

Total DRAM available = 16384.000 MB.
DRAM currently available =  145.141 MB.
Maximum ngspice program size =   17.047 MB.
Current ngspice program size =   17.047 MB.

