
Note: No compatibility mode selected!


Circuit: GF180MCU library cell oai21_1 A1_to_ZN__A2=0,B=1

Doing analysis at TEMP = 48.047928 and TNOM = 27.000000

Using SPARSE 1.3 as Direct Linear Solver

Initial Transient Solution
--------------------------

Node                                   Voltage
----                                   -------
vdd                                    1.87837
a1                                           0
a2                                           0
b                                      1.87837
zn                                     1.87837
xu1.net_0                          2.31439e-09
xu1.net_1                              1.87837
vfix_b#branch                                0
vfix_a2#branch                               0
vin#branch                                   0
vdd#branch                        -4.18239e-12

 Reference value :  7.60576e-08
 Reference value :  1.80068e-07
 Reference value :  2.80183e-07
No. of Data Rows : 68032

  Measurements for Transient Analysis

tphl                =  1.91674e-09 targ=  2.61368e-08 trig=  2.42200e-08
tplh                =  4.99833e-09 targ=  9.96584e-08 trig=  9.46601e-08
i_vdd_avg           =  -8.79371e-07 from=  1.00000e-08 to=  3.30003e-07
power_avg_uw        =  1.65178e+00


Total analysis time (seconds) = 1.04722

Total elapsed time (seconds) = 1.119 

Total DRAM available = 16384.000 MB.
DRAM currently available =  105.797 MB.
Maximum ngspice program size =   15.375 MB.
Current ngspice program size =   15.375 MB.

