
Note: No compatibility mode selected!


Circuit: GF180MCU library cell aoi21_4 A1_to_ZN__A2=1,B=0

Doing analysis at TEMP = 38.799496 and TNOM = 27.000000

Using SPARSE 1.3 as Direct Linear Solver

Initial Transient Solution
--------------------------

Node                                   Voltage
----                                   -------
vdd                                    1.95596
a1                                           0
a2                                     1.95596
b                                            0
xu1.net_0_0                        3.34719e-11
zn                                     1.95596
xu1.net_0_1                        3.34718e-11
xu1.net_0_2                        3.34719e-11
xu1.net_0_3                        3.34718e-11
xu1.net_1                              1.95596
vfix_b#branch                                0
vfix_a2#branch                               0
vin#branch                                   0
vdd#branch                        -1.57708e-11

 Reference value :  2.96725e-08
 Reference value :  6.22835e-08
 Reference value :  9.09435e-08
 Reference value :  1.21610e-07
 Reference value :  1.52680e-07
 Reference value :  1.82525e-07
 Reference value :  2.14149e-07
 Reference value :  2.46264e-07
 Reference value :  2.75895e-07
 Reference value :  3.09025e-07
 Reference value :  3.37720e-07
No. of Data Rows : 68032

  Measurements for Transient Analysis

tphl                =  1.06823e-09 targ=  2.80762e-08 trig=  2.70080e-08
tplh                =  2.27427e-09 targ=  1.05298e-07 trig=  1.03024e-07
i_vdd_avg           =  -3.49295e-07 from=  1.00000e-08 to=  3.30005e-07
power_avg_uw        =  6.83209e-01


Total analysis time (seconds) = 3.555

Total elapsed time (seconds) = 3.618 

Total DRAM available = 16384.000 MB.
DRAM currently available =  102.484 MB.
Maximum ngspice program size =   14.391 MB.
Current ngspice program size =   14.391 MB.

