
Note: No compatibility mode selected!


Circuit: GF180MCU library cell aoi21_4 A1_to_ZN__A2=1,B=0

Doing analysis at TEMP = 93.264491 and TNOM = 27.000000

Using SPARSE 1.3 as Direct Linear Solver

Initial Transient Solution
--------------------------

Node                                   Voltage
----                                   -------
vdd                                    1.77423
a1                                           0
a2                                     1.77423
b                                            0
xu1.net_0_0                        2.90585e-07
zn                                     1.77423
xu1.net_0_1                        2.90585e-07
xu1.net_0_2                        2.90585e-07
xu1.net_0_3                        2.90585e-07
xu1.net_1                              1.77423
vfix_b#branch                                0
vfix_a2#branch                               0
vin#branch                                   0
vdd#branch                        -4.78635e-10

 Reference value :  3.06760e-08
 Reference value :  6.76160e-08
 Reference value :  9.90946e-08
 Reference value :  1.29145e-07
 Reference value :  1.58970e-07
 Reference value :  1.89451e-07
 Reference value :  2.21921e-07
 Reference value :  2.53461e-07
 Reference value :  2.83625e-07
 Reference value :  3.15490e-07
No. of Data Rows : 68034

  Measurements for Transient Analysis

tphl                =  8.95798e-10 targ=  2.55826e-08 trig=  2.46868e-08
tplh                =  1.97628e-09 targ=  9.80366e-08 trig=  9.60603e-08
i_vdd_avg           =  -1.49168e-06 from=  1.00000e-08 to=  3.30005e-07
power_avg_uw        =  2.64659e+00


Total analysis time (seconds) = 3.35131

Total elapsed time (seconds) = 3.410 

Total DRAM available = 16384.000 MB.
DRAM currently available =   85.656 MB.
Maximum ngspice program size =   13.062 MB.
Current ngspice program size =   12.938 MB.

