
Note: No compatibility mode selected!


Circuit: GF180MCU library cell nand2_4 A1_to_ZN__A2=1

Doing analysis at TEMP = 80.263013 and TNOM = 27.000000

Using SPARSE 1.3 as Direct Linear Solver

Initial Transient Solution
--------------------------

Node                                   Voltage
----                                   -------
vdd                                    1.93605
a1                                           0
a2                                     1.93605
xu1.net_0_0                        1.01327e-08
zn                                     1.93605
xu1.net_0_1                        1.01327e-08
xu1.net_0_2                        1.01327e-08
xu1.net_0_3                        1.01327e-08
vfix_a2#branch                               0
vin#branch                                   0
vdd#branch                        -1.45548e-11

 Reference value :  3.95296e-08
 Reference value :  8.76296e-08
 Reference value :  1.38687e-07
 Reference value :  1.89715e-07
 Reference value :  2.39230e-07
 Reference value :  2.87747e-07
 Reference value :  3.35872e-07
No. of Data Rows : 68030

  Measurements for Transient Analysis

tphl                =  1.35548e-09 targ=  2.64490e-08 trig=  2.50936e-08
tplh                =  1.84113e-09 targ=  9.91218e-08 trig=  9.72806e-08
i_vdd_avg           =  -1.81345e-06 from=  1.00000e-08 to=  3.30002e-07
power_avg_uw        =  3.51091e+00


Total analysis time (seconds) = 2.15693

Total elapsed time (seconds) = 2.207 

Total DRAM available = 16384.000 MB.
DRAM currently available =   97.922 MB.
Maximum ngspice program size =   13.844 MB.
Current ngspice program size =   12.797 MB.

