
Note: No compatibility mode selected!


Circuit: GF180MCU library cell oai21_1 A1_to_ZN__A2=0,B=1

Doing analysis at TEMP = 113.923580 and TNOM = 27.000000

Using SPARSE 1.3 as Direct Linear Solver

Initial Transient Solution
--------------------------

Node                                   Voltage
----                                   -------
vdd                                    1.75886
a1                                           0
a2                                           0
b                                      1.75886
zn                                     1.75885
xu1.net_0                          1.56394e-06
xu1.net_1                              1.75886
vfix_b#branch                                0
vfix_a2#branch                               0
vin#branch                                   0
vdd#branch                        -2.91061e-10

 Reference value :  9.42371e-08
 Reference value :  2.10222e-07
 Reference value :  3.01782e-07
No. of Data Rows : 68032

  Measurements for Transient Analysis

tphl                =  4.51929e-09 targ=  3.09516e-08 trig=  2.64323e-08
tplh                =  1.04280e-08 targ=  1.11725e-07 trig=  1.01297e-07
i_vdd_avg           =  -2.03088e-06 from=  1.00000e-08 to=  3.30002e-07
power_avg_uw        =  3.57205e+00


Total analysis time (seconds) = 1.05424

Total elapsed time (seconds) = 1.121 

Total DRAM available = 16384.000 MB.
DRAM currently available =  142.516 MB.
Maximum ngspice program size =   14.438 MB.
Current ngspice program size =   14.438 MB.

