
Note: No compatibility mode selected!


Circuit: GF180MCU library cell xor2_4 A1_to_Z__A2=0

Doing analysis at TEMP = 96.652753 and TNOM = 27.000000

Using SPARSE 1.3 as Direct Linear Solver

Initial Transient Solution
--------------------------

Node                                   Voltage
----                                   -------
vdd                                    1.74287
a1                                           0
a2                                           0
xu1.net_2                            0.0473749
xu1.i                                  1.74287
xu1.net_0                           5.5714e-08
xu1.z_neg                              1.74287
z                                  1.35498e-08
xu1.net_1                              1.74287
vfix_a2#branch                               0
vin#branch                                   0
vdd#branch                        -2.41087e-11

 Reference value :  4.12614e-08
 Reference value :  9.12614e-08
 Reference value :  1.33950e-07
 Reference value :  1.75910e-07
 Reference value :  2.18901e-07
 Reference value :  2.58071e-07
 Reference value :  2.98905e-07
No. of Data Rows : 68032

  Measurements for Transient Analysis

tplh                =  2.99200e-09 targ=  2.87465e-08 trig=  2.57545e-08
tphl                =  3.39106e-09 targ=  1.02654e-07 trig=  9.92634e-08
i_vdd_avg           =  -2.04973e-06 from=  1.00000e-08 to=  3.30000e-07
power_avg_uw        =  3.57242e+00


Total analysis time (seconds) = 2.4895

Total elapsed time (seconds) = 2.549 

Total DRAM available = 16384.000 MB.
DRAM currently available =   93.562 MB.
Maximum ngspice program size =   15.156 MB.
Current ngspice program size =   15.156 MB.

