
Note: No compatibility mode selected!


Circuit: GF180MCU library cell inv_4 I_to_ZN

Doing analysis at TEMP = -12.922362 and TNOM = 27.000000

Using SPARSE 1.3 as Direct Linear Solver

Initial Transient Solution
--------------------------

Node                                   Voltage
----                                   -------
vdd                                    1.87393
i                                            0
zn                                     1.87393
vin#branch                                   0
vdd#branch                        -7.53939e-12

 Reference value :  6.10760e-08
 Reference value :  1.59735e-07
 Reference value :  2.54246e-07
No. of Data Rows : 68034

  Measurements for Transient Analysis

tphl                =  1.28838e-09 targ=  2.70901e-08 trig=  2.58018e-08
tplh                =  2.17832e-09 targ=  1.01584e-07 trig=  9.94053e-08
i_vdd_avg           =  -1.77856e-06 from=  1.00000e-08 to=  3.30005e-07
power_avg_uw        =  3.33290e+00


Total analysis time (seconds) = 1.19896

Total elapsed time (seconds) = 1.268 

Total DRAM available = 16384.000 MB.
DRAM currently available =  109.328 MB.
Maximum ngspice program size =   18.328 MB.
Current ngspice program size =   18.328 MB.

