
Note: No compatibility mode selected!


Circuit: GF180MCU library cell nor2_1 A1_to_ZN__A2=0

Doing analysis at TEMP = 87.839340 and TNOM = 27.000000

Using SPARSE 1.3 as Direct Linear Solver

Initial Transient Solution
--------------------------

Node                                   Voltage
----                                   -------
vdd                                     1.7667
a1                                           0
a2                                           0
zn                                      1.7667
xu1.net_0                               1.7667
vfix_a2#branch                               0
vin#branch                                   0
vdd#branch                        -8.56338e-12

 Reference value :  9.96098e-08
 Reference value :  2.50730e-07
No. of Data Rows : 68030

  Measurements for Transient Analysis

tphl                =  5.19914e-09 targ=  3.13478e-08 trig=  2.61487e-08
tplh                =  1.59932e-08 targ=  1.16439e-07 trig=  1.00446e-07
i_vdd_avg           =  -2.14072e-06 from=  1.00000e-08 to=  3.30002e-07
power_avg_uw        =  3.78202e+00


Total analysis time (seconds) = 0.730013

Total elapsed time (seconds) = 0.791 

Total DRAM available = 16384.000 MB.
DRAM currently available =   84.797 MB.
Maximum ngspice program size =   16.484 MB.
Current ngspice program size =   16.484 MB.

