
Note: No compatibility mode selected!


Circuit: GF180MCU library cell nand2_4 A1_to_ZN__A2=1

Doing analysis at TEMP = -17.368225 and TNOM = 27.000000

Using SPARSE 1.3 as Direct Linear Solver

Initial Transient Solution
--------------------------

Node                                   Voltage
----                                   -------
vdd                                    1.97933
a1                                           0
a2                                     1.97933
xu1.net_0_0                        8.43812e-14
zn                                     1.97933
xu1.net_0_1                        8.43975e-14
xu1.net_0_2                        8.43812e-14
xu1.net_0_3                        8.43975e-14
vfix_a2#branch                               0
vin#branch                                   0
vdd#branch                        -7.95736e-12

 Reference value :  3.14475e-08
 Reference value :  8.07794e-08
 Reference value :  1.31326e-07
 Reference value :  1.82451e-07
 Reference value :  2.33589e-07
 Reference value :  2.85821e-07
 Reference value :  3.36756e-07
No. of Data Rows : 68030

  Measurements for Transient Analysis

tphl                =  3.38540e-09 targ=  3.30814e-08 trig=  2.96960e-08
tplh                =  5.11554e-09 targ=  1.16203e-07 trig=  1.11088e-07
i_vdd_avg           =  -1.69755e-06 from=  1.00000e-08 to=  3.30001e-07
power_avg_uw        =  3.36001e+00


Total analysis time (seconds) = 2.16672

Total elapsed time (seconds) = 2.248 

Total DRAM available = 16384.000 MB.
DRAM currently available =   94.203 MB.
Maximum ngspice program size =   16.859 MB.
Current ngspice program size =   16.859 MB.

