
Note: No compatibility mode selected!


Circuit: GF180MCU library cell oai21_4 A1_to_ZN__A2=0,B=1

Doing analysis at TEMP = -30.821773 and TNOM = 27.000000

Using SPARSE 1.3 as Direct Linear Solver

Initial Transient Solution
--------------------------

Node                                   Voltage
----                                   -------
vdd                                    1.81101
a1                                           0
a2                                           0
b                                      1.81101
zn                                     1.81101
xu1.net_0                          4.75518e-11
xu1.net_1_0                            1.81101
xu1.net_1_1                            1.81101
xu1.net_1_2                            1.81101
xu1.net_1_3                            1.81101
vfix_b#branch                                0
vfix_a2#branch                               0
vin#branch                                   0
vdd#branch                        -1.46213e-11

 Reference value :  2.18264e-08
 Reference value :  5.32134e-08
 Reference value :  8.62034e-08
 Reference value :  1.16564e-07
 Reference value :  1.45009e-07
 Reference value :  1.77429e-07
 Reference value :  2.07373e-07
 Reference value :  2.37578e-07
 Reference value :  2.69709e-07
 Reference value :  3.00894e-07
 Reference value :  3.31709e-07
No. of Data Rows : 68032

  Measurements for Transient Analysis

tphl                =  1.06552e-09 targ=  2.57485e-08 trig=  2.46830e-08
tplh                =  2.63221e-09 targ=  9.86811e-08 trig=  9.60489e-08
i_vdd_avg           =  -2.39956e-06 from=  1.00000e-08 to=  3.30004e-07
power_avg_uw        =  4.34563e+00


Total analysis time (seconds) = 3.53209

Total elapsed time (seconds) = 3.596 

Total DRAM available = 16384.000 MB.
DRAM currently available =  106.984 MB.
Maximum ngspice program size =   14.938 MB.
Current ngspice program size =   14.938 MB.

