
Note: No compatibility mode selected!


Circuit: GF180MCU library cell oai21_1 A1_to_ZN__A2=0,B=1

Doing analysis at TEMP = 43.539103 and TNOM = 27.000000

Using SPARSE 1.3 as Direct Linear Solver

Initial Transient Solution
--------------------------

Node                                   Voltage
----                                   -------
vdd                                    1.64752
a1                                           0
a2                                           0
b                                      1.64752
zn                                     1.64752
xu1.net_0                          1.15583e-10
xu1.net_1                              1.64752
vfix_b#branch                                0
vfix_a2#branch                               0
vin#branch                                   0
vdd#branch                        -3.32704e-12

 Reference value :  7.63215e-08
 Reference value :  1.76011e-07
 Reference value :  2.80291e-07
No. of Data Rows : 68032

  Measurements for Transient Analysis

tphl                =  4.18727e-09 targ=  3.02243e-08 trig=  2.60370e-08
tplh                =  1.09983e-08 targ=  1.11109e-07 trig=  1.00111e-07
i_vdd_avg           =  -6.40700e-07 from=  1.00000e-08 to=  3.30001e-07
power_avg_uw        =  1.05556e+00


Total analysis time (seconds) = 1.08141

Total elapsed time (seconds) = 1.142 

Total DRAM available = 16384.000 MB.
DRAM currently available =  120.594 MB.
Maximum ngspice program size =   16.672 MB.
Current ngspice program size =   16.672 MB.

