
Note: No compatibility mode selected!


Circuit: GF180MCU library cell inv_1 I_to_ZN

Doing analysis at TEMP = 95.178462 and TNOM = 27.000000

Using SPARSE 1.3 as Direct Linear Solver

Initial Transient Solution
--------------------------

Node                                   Voltage
----                                   -------
vdd                                    1.90275
i                                            0
zn                                     1.90275
vin#branch                                   0
vdd#branch                         -2.1679e-12

 Reference value :  1.93469e-07
No. of Data Rows : 68030

  Measurements for Transient Analysis

tphl                =  3.58386e-09 targ=  3.06947e-08 trig=  2.71108e-08
tplh                =  6.62235e-09 targ=  1.09955e-07 trig=  1.03332e-07
i_vdd_avg           =  -1.10215e-06 from=  1.00000e-08 to=  3.30001e-07
power_avg_uw        =  2.09712e+00


Total analysis time (seconds) = 0.393245

Total elapsed time (seconds) = 0.483 

Total DRAM available = 16384.000 MB.
DRAM currently available =   74.906 MB.
Maximum ngspice program size =   19.344 MB.
Current ngspice program size =   19.344 MB.

