
Note: No compatibility mode selected!


Circuit: GF180MCU library cell mux2_1 I0_to_Z__I1=0,S=0

Doing analysis at TEMP = 74.783367 and TNOM = 27.000000

Using SPARSE 1.3 as Direct Linear Solver

Initial Transient Solution
--------------------------

Node                                   Voltage
----                                   -------
vdd                                    1.90492
i0                                           0
i1                                           0
s                                            0
xu1.int04                              1.90492
z                                  1.05715e-08
xu1.net_1                            0.0523726
xu1.net_3                              1.45318
xu1.sel1_n                             1.90492
xu1.net_0                              1.90492
xu1.net_2                              1.90492
vfix_s#branch                                0
vfix_i1#branch                               0
vin#branch                                   0
vdd#branch                        -1.28708e-10

 Reference value :  3.98897e-08
 Reference value :  9.58347e-08
 Reference value :  1.50772e-07
 Reference value :  2.10580e-07
 Reference value :  2.58660e-07
 Reference value :  3.15467e-07
No. of Data Rows : 68030

  Measurements for Transient Analysis

tplh                =  4.47980e-09 targ=  3.41709e-08 trig=  2.96911e-08
tphl                =  4.56317e-09 targ=  1.15636e-07 trig=  1.11073e-07
i_vdd_avg           =  -2.61827e-06 from=  1.00000e-08 to=  3.30002e-07
power_avg_uw        =  4.98760e+00


Total analysis time (seconds) = 1.9858

Total elapsed time (seconds) = 2.055 

Total DRAM available = 16384.000 MB.
DRAM currently available =  103.156 MB.
Maximum ngspice program size =   15.828 MB.
Current ngspice program size =   15.828 MB.

