
Note: No compatibility mode selected!


Circuit: GF180MCU library cell nand3_1 A1_to_ZN__A2=1,A3=1

Doing analysis at TEMP = 8.797868 and TNOM = 27.000000

Using SPARSE 1.3 as Direct Linear Solver

Initial Transient Solution
--------------------------

Node                                   Voltage
----                                   -------
vdd                                    1.83222
a1                                           0
a2                                     1.83222
a3                                     1.83222
xu1.net_1                          1.93199e-12
xu1.net_0                          3.86397e-12
zn                                     1.83222
vfix_a3#branch                               0
vfix_a2#branch                               0
vin#branch                                   0
vdd#branch                        -1.84248e-12

 Reference value :  8.79558e-08
 Reference value :  1.85278e-07
 Reference value :  2.91244e-07
No. of Data Rows : 68034

  Measurements for Transient Analysis

tphl                =  9.09417e-09 targ=  3.77508e-08 trig=  2.86567e-08
tplh                =  1.14116e-08 targ=  1.19382e-07 trig=  1.07970e-07
i_vdd_avg           =  -1.45539e-06 from=  1.00000e-08 to=  3.30004e-07
power_avg_uw        =  2.66658e+00


Total analysis time (seconds) = 1.03617

Total elapsed time (seconds) = 1.111 

Total DRAM available = 16384.000 MB.
DRAM currently available =   94.656 MB.
Maximum ngspice program size =   16.344 MB.
Current ngspice program size =   16.344 MB.

