
Note: No compatibility mode selected!


Circuit: GF180MCU library cell nand3_4 A1_to_ZN__A2=1,A3=1

Doing analysis at TEMP = 59.563210 and TNOM = 27.000000

Using SPARSE 1.3 as Direct Linear Solver

Initial Transient Solution
--------------------------

Node                                   Voltage
----                                   -------
vdd                                    1.85496
a1                                           0
a2                                     1.85496
a3                                     1.85496
xu1.net_1_3                        2.66086e-09
xu1.net_0                          5.32171e-09
xu1.net_1_2                        2.66086e-09
xu1.net_1_1                        2.66086e-09
xu1.net_1_0                        2.66086e-09
xu1.net_0_0                        5.32171e-09
zn                                     1.85496
vfix_a3#branch                               0
vfix_a2#branch                               0
vin#branch                                   0
vdd#branch                        -9.24044e-12

 Reference value :  2.95925e-08
 Reference value :  6.06729e-08
 Reference value :  9.10579e-08
 Reference value :  1.18818e-07
 Reference value :  1.48938e-07
 Reference value :  1.75688e-07
 Reference value :  2.04133e-07
 Reference value :  2.35578e-07
 Reference value :  2.66408e-07
 Reference value :  2.97373e-07
 Reference value :  3.29248e-07
No. of Data Rows : 68032

  Measurements for Transient Analysis

tphl                =  1.02813e-09 targ=  3.08758e-08 trig=  2.98477e-08
tplh                =  2.53802e-09 targ=  1.14081e-07 trig=  1.11543e-07
i_vdd_avg           =  -5.08543e-07 from=  1.00000e-08 to=  3.30003e-07
power_avg_uw        =  9.43328e-01


Total analysis time (seconds) = 3.62957

Total elapsed time (seconds) = 3.691 

Total DRAM available = 16384.000 MB.
DRAM currently available =   91.703 MB.
Maximum ngspice program size =   12.578 MB.
Current ngspice program size =   12.453 MB.

