
Note: No compatibility mode selected!


Circuit: GF180MCU library cell nor2_4 A1_to_ZN__A2=0

Doing analysis at TEMP = 7.412533 and TNOM = 27.000000

Using SPARSE 1.3 as Direct Linear Solver

Initial Transient Solution
--------------------------

Node                                   Voltage
----                                   -------
vdd                                    1.70822
a1                                           0
a2                                           0
zn                                     1.70822
xu1.net_0_0                            1.70822
xu1.net_0_1                            1.70822
xu1.net_0_2                            1.70822
xu1.net_0_3                            1.70822
vfix_a2#branch                               0
vin#branch                                   0
vdd#branch                        -1.37478e-11

 Reference value :  3.65405e-08
 Reference value :  8.79205e-08
 Reference value :  1.35998e-07
 Reference value :  1.82828e-07
 Reference value :  2.32670e-07
 Reference value :  2.78408e-07
 Reference value :  3.29208e-07
No. of Data Rows : 68034

  Measurements for Transient Analysis

tphl                =  7.10912e-10 targ=  2.48599e-08 trig=  2.41490e-08
tplh                =  2.59770e-09 targ=  9.70446e-08 trig=  9.44469e-08
i_vdd_avg           =  -7.77370e-07 from=  1.00000e-08 to=  3.30003e-07
power_avg_uw        =  1.32792e+00


Total analysis time (seconds) = 2.23313

Total elapsed time (seconds) = 2.295 

Total DRAM available = 16384.000 MB.
DRAM currently available =  131.219 MB.
Maximum ngspice program size =   15.531 MB.
Current ngspice program size =   15.531 MB.

