
Note: No compatibility mode selected!


Circuit: GF180MCU library cell mux2_1 I0_to_Z__I1=0,S=0

Doing analysis at TEMP = 98.214107 and TNOM = 27.000000

Using SPARSE 1.3 as Direct Linear Solver

Initial Transient Solution
--------------------------

Node                                   Voltage
----                                   -------
vdd                                    1.70726
i0                                           0
i1                                           0
s                                            0
xu1.int04                              1.70725
z                                  1.68037e-08
xu1.net_1                            0.0517641
xu1.net_3                              1.29038
xu1.sel1_n                             1.70726
xu1.net_0                              1.70726
xu1.net_2                              1.70726
vfix_s#branch                                0
vfix_i1#branch                               0
vin#branch                                   0
vdd#branch                        -3.27246e-10

 Reference value :  4.16986e-08
 Reference value :  9.88586e-08
 Reference value :  1.54780e-07
 Reference value :  2.11544e-07
 Reference value :  2.62194e-07
 Reference value :  3.24010e-07
No. of Data Rows : 68032

  Measurements for Transient Analysis

tplh                =  3.77754e-09 targ=  3.34106e-08 trig=  2.96331e-08
tphl                =  4.29815e-09 targ=  1.15197e-07 trig=  1.10899e-07
i_vdd_avg           =  -1.57415e-06 from=  1.00000e-08 to=  3.30005e-07
power_avg_uw        =  2.68748e+00


Total analysis time (seconds) = 1.93399

Total elapsed time (seconds) = 2.000 

Total DRAM available = 16384.000 MB.
DRAM currently available =   79.969 MB.
Maximum ngspice program size =   15.734 MB.
Current ngspice program size =   15.734 MB.

