
Note: No compatibility mode selected!


Circuit: GF180MCU library cell xor2_4 A1_to_Z__A2=0

Doing analysis at TEMP = -28.062891 and TNOM = 27.000000

Using SPARSE 1.3 as Direct Linear Solver

Initial Transient Solution
--------------------------

Node                                   Voltage
----                                   -------
vdd                                    1.69934
a1                                           0
a2                                           0
xu1.net_2                           0.00918709
xu1.i                                  1.69934
xu1.net_0                          6.60551e-11
xu1.z_neg                              1.69934
z                                   7.0276e-09
xu1.net_1                              1.69934
vfix_a2#branch                               0
vin#branch                                   0
vdd#branch                        -1.23957e-11

 Reference value :  2.67575e-08
 Reference value :  6.79076e-08
 Reference value :  1.09843e-07
 Reference value :  1.50373e-07
 Reference value :  1.91408e-07
 Reference value :  2.35953e-07
 Reference value :  2.77978e-07
 Reference value :  3.18728e-07
No. of Data Rows : 68032

  Measurements for Transient Analysis

tplh                =  2.20413e-09 targ=  3.19817e-08 trig=  2.97775e-08
tphl                =  3.93957e-09 targ=  1.15272e-07 trig=  1.11333e-07
i_vdd_avg           =  -2.24846e-06 from=  1.00000e-08 to=  3.30003e-07
power_avg_uw        =  3.82090e+00


Total analysis time (seconds) = 2.673

Total elapsed time (seconds) = 2.751 

Total DRAM available = 16384.000 MB.
DRAM currently available =  102.312 MB.
Maximum ngspice program size =   17.516 MB.
Current ngspice program size =   17.516 MB.

