
Note: No compatibility mode selected!


Circuit: GF180MCU library cell nand2_1 A1_to_ZN__A2=1

Doing analysis at TEMP = 108.429420 and TNOM = 27.000000

Using SPARSE 1.3 as Direct Linear Solver

Initial Transient Solution
--------------------------

Node                                   Voltage
----                                   -------
vdd                                    1.77784
a1                                           0
a2                                     1.77784
xu1.net_0                          5.25433e-08
zn                                     1.77784
vfix_a2#branch                               0
vin#branch                                   0
vdd#branch                        -9.18224e-12

 Reference value :  1.20676e-07
 Reference value :  2.92306e-07
No. of Data Rows : 68032

  Measurements for Transient Analysis

tphl                =  6.02107e-09 targ=  3.04733e-08 trig=  2.44522e-08
tplh                =  8.26144e-09 targ=  1.03618e-07 trig=  9.53566e-08
i_vdd_avg           =  -2.23880e-06 from=  1.00000e-08 to=  3.30001e-07
power_avg_uw        =  3.98022e+00


Total analysis time (seconds) = 0.654547

Total elapsed time (seconds) = 0.736 

Total DRAM available = 16384.000 MB.
DRAM currently available =  107.750 MB.
Maximum ngspice program size =   18.828 MB.
Current ngspice program size =   18.828 MB.

