
Note: No compatibility mode selected!


Circuit: GF180MCU library cell xor2_4 A1_to_Z__A2=0

Doing analysis at TEMP = 51.776988 and TNOM = 27.000000

Using SPARSE 1.3 as Direct Linear Solver

Initial Transient Solution
--------------------------

Node                                   Voltage
----                                   -------
vdd                                    1.73995
a1                                           0
a2                                           0
xu1.net_2                             0.047867
xu1.i                                  1.73995
xu1.net_0                          5.52688e-08
xu1.z_neg                              1.73995
z                                  9.00727e-09
xu1.net_1                              1.73995
vfix_a2#branch                               0
vin#branch                                   0
vdd#branch                        -2.76366e-11

 Reference value :  3.26200e-08
 Reference value :  7.39050e-08
 Reference value :  1.13527e-07
 Reference value :  1.56592e-07
 Reference value :  1.97895e-07
 Reference value :  2.42890e-07
 Reference value :  2.85327e-07
 Reference value :  3.28667e-07
No. of Data Rows : 68030

  Measurements for Transient Analysis

tplh                =  1.19090e-09 targ=  2.67896e-08 trig=  2.55987e-08
tphl                =  1.89026e-09 targ=  1.00686e-07 trig=  9.87962e-08
i_vdd_avg           =  -7.98273e-07 from=  1.00000e-08 to=  3.30002e-07
power_avg_uw        =  1.38896e+00


Total analysis time (seconds) = 2.53191

Total elapsed time (seconds) = 2.598 

Total DRAM available = 16384.000 MB.
DRAM currently available =   65.547 MB.
Maximum ngspice program size =   15.781 MB.
Current ngspice program size =   15.781 MB.

