
Note: No compatibility mode selected!


Circuit: GF180MCU library cell mux2_4 I0_to_Z__I1=0,S=0

Doing analysis at TEMP = 33.466552 and TNOM = 27.000000

Using SPARSE 1.3 as Direct Linear Solver

Initial Transient Solution
--------------------------

Node                                   Voltage
----                                   -------
vdd                                    1.68111
i0                                           0
i1                                           0
s                                            0
xu1.int04                              1.68111
z                                  8.45498e-09
xu1.net_1                            0.0391374
xu1.net_3                              1.22638
xu1.sel1_n                             1.68111
xu1.net_0                              1.68111
xu1.net_2                              1.68111
vfix_s#branch                                0
vfix_i1#branch                               0
vin#branch                                   0
vdd#branch                         -1.8149e-11

 Reference value :  3.74897e-08
 Reference value :  7.99097e-08
 Reference value :  1.20022e-07
 Reference value :  1.60202e-07
 Reference value :  1.95520e-07
 Reference value :  2.38765e-07
 Reference value :  2.79487e-07
 Reference value :  3.18682e-07
No. of Data Rows : 68030

  Measurements for Transient Analysis

tplh                =  1.24975e-09 targ=  2.58459e-08 trig=  2.45961e-08
tphl                =  1.63093e-09 targ=  9.74193e-08 trig=  9.57884e-08
i_vdd_avg           =  -1.10572e-06 from=  1.00000e-08 to=  3.30002e-07
power_avg_uw        =  1.85883e+00


Total analysis time (seconds) = 2.60792

Total elapsed time (seconds) = 2.676 

Total DRAM available = 16384.000 MB.
DRAM currently available =   82.281 MB.
Maximum ngspice program size =   16.078 MB.
Current ngspice program size =   16.078 MB.

