
Note: No compatibility mode selected!


Circuit: GF180MCU library cell nor2_1 A1_to_ZN__A2=0

Doing analysis at TEMP = 29.991306 and TNOM = 27.000000

Using SPARSE 1.3 as Direct Linear Solver

Initial Transient Solution
--------------------------

Node                                   Voltage
----                                   -------
vdd                                    1.69722
a1                                           0
a2                                           0
zn                                     1.69722
xu1.net_0                              1.69722
vfix_a2#branch                               0
vin#branch                                   0
vdd#branch                         -3.5188e-12

 Reference value :  1.21727e-07
 Reference value :  2.76567e-07
No. of Data Rows : 68032

  Measurements for Transient Analysis

tphl                =  3.91519e-09 targ=  2.93325e-08 trig=  2.54174e-08
tplh                =  1.27924e-08 targ=  1.11044e-07 trig=  9.82521e-08
i_vdd_avg           =  -1.59536e-06 from=  1.00000e-08 to=  3.30002e-07
power_avg_uw        =  2.70768e+00


Total analysis time (seconds) = 0.682955

Total elapsed time (seconds) = 0.764 

Total DRAM available = 16384.000 MB.
DRAM currently available =  167.062 MB.
Maximum ngspice program size =   17.688 MB.
Current ngspice program size =   17.688 MB.

