
Note: No compatibility mode selected!


Circuit: GF180MCU library cell nand3_4 A1_to_ZN__A2=1,A3=1

Doing analysis at TEMP = 123.428060 and TNOM = 27.000000

Using SPARSE 1.3 as Direct Linear Solver

Initial Transient Solution
--------------------------

Node                                   Voltage
----                                   -------
vdd                                    1.86585
a1                                           0
a2                                     1.86585
a3                                     1.86585
xu1.net_1_3                        1.17549e-06
xu1.net_0                          2.35098e-06
xu1.net_1_2                        1.17549e-06
xu1.net_1_1                        1.17549e-06
xu1.net_1_0                        1.17549e-06
xu1.net_0_0                        2.35098e-06
zn                                     1.86585
vfix_a3#branch                               0
vfix_a2#branch                               0
vin#branch                                   0
vdd#branch                        -9.07823e-10

 Reference value :  2.80475e-08
 Reference value :  6.39225e-08
 Reference value :  9.37125e-08
 Reference value :  1.21058e-07
 Reference value :  1.50048e-07
 Reference value :  1.80033e-07
 Reference value :  2.11798e-07
 Reference value :  2.43233e-07
 Reference value :  2.73778e-07
 Reference value :  3.03598e-07
 Reference value :  3.33638e-07
No. of Data Rows : 68032

  Measurements for Transient Analysis

tphl                =  2.38458e-09 targ=  3.12721e-08 trig=  2.88875e-08
tplh                =  3.57361e-09 targ=  1.12236e-07 trig=  1.08663e-07
i_vdd_avg           =  -2.52602e-06 from=  1.00000e-08 to=  3.30003e-07
power_avg_uw        =  4.71318e+00


Total analysis time (seconds) = 3.59985

Total elapsed time (seconds) = 3.670 

Total DRAM available = 16384.000 MB.
DRAM currently available =   91.703 MB.
Maximum ngspice program size =   12.875 MB.
Current ngspice program size =   12.875 MB.

