
Note: No compatibility mode selected!


Circuit: GF180MCU library cell nor2_1 A1_to_ZN__A2=0

Doing analysis at TEMP = -19.104257 and TNOM = 27.000000

Using SPARSE 1.3 as Direct Linear Solver

Initial Transient Solution
--------------------------

Node                                   Voltage
----                                   -------
vdd                                    1.78283
a1                                           0
a2                                           0
zn                                     1.78283
xu1.net_0                              1.78283
vfix_a2#branch                               0
vin#branch                                   0
vdd#branch                        -3.58672e-12

 Reference value :  1.65902e-07
 Reference value :  3.10647e-07
No. of Data Rows : 68030

  Measurements for Transient Analysis

tphl                =  1.90225e-09 targ=  3.07409e-08 trig=  2.88386e-08
tplh                =  4.15561e-09 targ=  1.12672e-07 trig=  1.08516e-07
i_vdd_avg           =  -2.50237e-07 from=  1.00000e-08 to=  3.30002e-07
power_avg_uw        =  4.46130e-01


Total analysis time (seconds) = 0.71772

Total elapsed time (seconds) = 0.767 

Total DRAM available = 16384.000 MB.
DRAM currently available =   84.797 MB.
Maximum ngspice program size =   14.328 MB.
Current ngspice program size =   14.328 MB.

