
Note: No compatibility mode selected!


Circuit: GF180MCU library cell nand2_1 A1_to_ZN__A2=1

Doing analysis at TEMP = 27.638544 and TNOM = 27.000000

Using SPARSE 1.3 as Direct Linear Solver

Initial Transient Solution
--------------------------

Node                                   Voltage
----                                   -------
vdd                                    1.69611
a1                                           0
a2                                     1.69611
xu1.net_0                          5.26365e-09
zn                                     1.69611
vfix_a2#branch                               0
vin#branch                                   0
vdd#branch                        -2.85371e-12

 Reference value :  1.29404e-07
 Reference value :  2.90174e-07
No. of Data Rows : 68032

  Measurements for Transient Analysis

tphl                =  6.11776e-10 targ=  2.46896e-08 trig=  2.40778e-08
tplh                =  8.57250e-10 targ=  9.50907e-08 trig=  9.42334e-08
i_vdd_avg           =  -3.29513e-07 from=  1.00000e-08 to=  3.30004e-07
power_avg_uw        =  5.58889e-01


Total analysis time (seconds) = 0.657081

Total elapsed time (seconds) = 0.709 

Total DRAM available = 16384.000 MB.
DRAM currently available =  124.516 MB.
Maximum ngspice program size =   15.781 MB.
Current ngspice program size =   15.781 MB.

