
Note: No compatibility mode selected!


Circuit: GF180MCU library cell nor2_4 A1_to_ZN__A2=0

Doing analysis at TEMP = 10.820990 and TNOM = 27.000000

Using SPARSE 1.3 as Direct Linear Solver

Initial Transient Solution
--------------------------

Node                                   Voltage
----                                   -------
vdd                                    1.66597
a1                                           0
a2                                           0
zn                                     1.66597
xu1.net_0_0                            1.66597
xu1.net_0_1                            1.66597
xu1.net_0_2                            1.66597
xu1.net_0_3                            1.66597
vfix_a2#branch                               0
vin#branch                                   0
vdd#branch                        -1.34106e-11

 Reference value :  3.10975e-08
 Reference value :  7.59784e-08
 Reference value :  1.24319e-07
 Reference value :  1.72219e-07
 Reference value :  2.20123e-07
 Reference value :  2.68533e-07
 Reference value :  3.16349e-07
No. of Data Rows : 68032

  Measurements for Transient Analysis

tphl                =  2.74072e-09 targ=  3.12187e-08 trig=  2.84779e-08
tplh                =  5.20368e-09 targ=  1.12637e-07 trig=  1.07434e-07
i_vdd_avg           =  -6.44520e-07 from=  1.00000e-08 to=  3.30004e-07
power_avg_uw        =  1.07375e+00


Total analysis time (seconds) = 2.38614

Total elapsed time (seconds) = 2.461 

Total DRAM available = 16384.000 MB.
DRAM currently available =  131.219 MB.
Maximum ngspice program size =   16.656 MB.
Current ngspice program size =   16.656 MB.

