
Note: No compatibility mode selected!


Circuit: GF180MCU library cell nand2_4 A1_to_ZN__A2=1

Doing analysis at TEMP = 55.252509 and TNOM = 27.000000

Using SPARSE 1.3 as Direct Linear Solver

Initial Transient Solution
--------------------------

Node                                   Voltage
----                                   -------
vdd                                    1.64955
a1                                           0
a2                                     1.64955
xu1.net_0_0                        3.49857e-08
zn                                     1.64955
xu1.net_0_1                        3.49857e-08
xu1.net_0_2                        3.49857e-08
xu1.net_0_3                        3.49857e-08
vfix_a2#branch                               0
vin#branch                                   0
vdd#branch                        -3.41237e-11

 Reference value :  3.31599e-08
 Reference value :  8.54799e-08
 Reference value :  1.39722e-07
 Reference value :  1.89965e-07
 Reference value :  2.41215e-07
 Reference value :  2.94267e-07
No. of Data Rows : 68030

  Measurements for Transient Analysis

tphl                =  6.36530e-10 targ=  2.75477e-08 trig=  2.69112e-08
tplh                =  1.51472e-09 targ=  1.04248e-07 trig=  1.02734e-07
i_vdd_avg           =  -5.36955e-07 from=  1.00000e-08 to=  3.30002e-07
power_avg_uw        =  8.85734e-01


Total analysis time (seconds) = 2.09658

Total elapsed time (seconds) = 2.173 

Total DRAM available = 16384.000 MB.
DRAM currently available =  111.484 MB.
Maximum ngspice program size =   16.641 MB.
Current ngspice program size =   16.641 MB.

