
Note: No compatibility mode selected!


Circuit: GF180MCU library cell aoi21_1 A1_to_ZN__A2=1,B=0

Doing analysis at TEMP = 0.836184 and TNOM = 27.000000

Using SPARSE 1.3 as Direct Linear Solver

Initial Transient Solution
--------------------------

Node                                   Voltage
----                                   -------
vdd                                    1.79774
a1                                           0
a2                                     1.79774
b                                            0
xu1.net_0                          8.18774e-13
zn                                     1.79774
xu1.net_1                              1.79774
vfix_b#branch                                0
vfix_a2#branch                               0
vin#branch                                   0
vdd#branch                        -3.61575e-12

 Reference value :  7.38079e-08
 Reference value :  1.82048e-07
 Reference value :  2.84253e-07
No. of Data Rows : 68032

  Measurements for Transient Analysis

tphl                =  8.62475e-09 targ=  3.80024e-08 trig=  2.93777e-08
tplh                =  2.08423e-08 targ=  1.30975e-07 trig=  1.10133e-07
i_vdd_avg           =  -1.70631e-06 from=  1.00000e-08 to=  3.30003e-07
power_avg_uw        =  3.06751e+00


Total analysis time (seconds) = 1.05746

Total elapsed time (seconds) = 1.139 

Total DRAM available = 16384.000 MB.
DRAM currently available =  113.406 MB.
Maximum ngspice program size =   16.953 MB.
Current ngspice program size =   16.953 MB.

