
Note: No compatibility mode selected!


Circuit: GF180MCU library cell mux2_1 I0_to_Z__I1=0,S=0

Doing analysis at TEMP = -25.973103 and TNOM = 27.000000

Using SPARSE 1.3 as Direct Linear Solver

Initial Transient Solution
--------------------------

Node                                   Voltage
----                                   -------
vdd                                     1.6521
i0                                           0
i1                                           0
s                                            0
xu1.int04                              1.65209
z                                  9.50788e-09
xu1.net_1                          0.000593644
xu1.net_3                              1.08175
xu1.sel1_n                              1.6521
xu1.net_0                               1.6521
xu1.net_2                               1.6521
vfix_s#branch                                0
vfix_i1#branch                               0
vin#branch                                   0
vdd#branch                          -8.915e-12

 Reference value :  4.08730e-08
 Reference value :  9.72780e-08
 Reference value :  1.52549e-07
 Reference value :  2.09958e-07
 Reference value :  2.64074e-07
 Reference value :  3.19289e-07
No. of Data Rows : 68032

  Measurements for Transient Analysis

tplh                =  2.46514e-09 targ=  2.87804e-08 trig=  2.63153e-08
tphl                =  2.93943e-09 targ=  1.03885e-07 trig=  1.00946e-07
i_vdd_avg           =  -4.24276e-07 from=  1.00000e-08 to=  3.30004e-07
power_avg_uw        =  7.00945e-01


Total analysis time (seconds) = 1.97986

Total elapsed time (seconds) = 2.039 

Total DRAM available = 16384.000 MB.
DRAM currently available =  103.828 MB.
Maximum ngspice program size =   13.594 MB.
Current ngspice program size =   13.016 MB.

