
Note: No compatibility mode selected!


Circuit: GF180MCU library cell nand3_4 A1_to_ZN__A2=1,A3=1

Doing analysis at TEMP = 80.309872 and TNOM = 27.000000

Using SPARSE 1.3 as Direct Linear Solver

Initial Transient Solution
--------------------------

Node                                   Voltage
----                                   -------
vdd                                    1.97176
a1                                           0
a2                                     1.97176
a3                                     1.97176
xu1.net_1_3                        1.00949e-08
xu1.net_0                          2.01898e-08
xu1.net_1_2                        1.00949e-08
xu1.net_1_1                        1.00949e-08
xu1.net_1_0                        1.00949e-08
xu1.net_0_0                        2.01898e-08
zn                                     1.97176
vfix_a3#branch                               0
vfix_a2#branch                               0
vin#branch                                   0
vdd#branch                        -1.48189e-11

 Reference value :  2.63270e-08
 Reference value :  5.62820e-08
 Reference value :  8.72520e-08
 Reference value :  1.17317e-07
 Reference value :  1.48107e-07
 Reference value :  1.77167e-07
 Reference value :  2.05592e-07
 Reference value :  2.35162e-07
 Reference value :  2.64332e-07
 Reference value :  2.96807e-07
 Reference value :  3.28462e-07
No. of Data Rows : 68032

  Measurements for Transient Analysis

tphl                =  1.07234e-09 targ=  2.61721e-08 trig=  2.50998e-08
tplh                =  1.32289e-09 targ=  9.86222e-08 trig=  9.72993e-08
i_vdd_avg           =  -9.70626e-07 from=  1.00000e-08 to=  3.30002e-07
power_avg_uw        =  1.91384e+00


Total analysis time (seconds) = 3.73602

Total elapsed time (seconds) = 3.805 

Total DRAM available = 16384.000 MB.
DRAM currently available =   80.672 MB.
Maximum ngspice program size =   13.094 MB.
Current ngspice program size =   13.094 MB.

