
Note: No compatibility mode selected!


Circuit: GF180MCU library cell inv_4 I_to_ZN

Doing analysis at TEMP = 74.400197 and TNOM = 27.000000

Using SPARSE 1.3 as Direct Linear Solver

Initial Transient Solution
--------------------------

Node                                   Voltage
----                                   -------
vdd                                    1.62249
i                                            0
zn                                     1.62249
vin#branch                                   0
vdd#branch                        -1.06603e-11

 Reference value :  6.86101e-08
 Reference value :  1.63363e-07
 Reference value :  2.59945e-07
No. of Data Rows : 68034

  Measurements for Transient Analysis

tphl                =  2.31125e-09 targ=  2.95076e-08 trig=  2.71963e-08
tplh                =  3.96361e-09 targ=  1.07553e-07 trig=  1.03589e-07
i_vdd_avg           =  -1.90746e-06 from=  1.00000e-08 to=  3.30003e-07
power_avg_uw        =  3.09482e+00


Total analysis time (seconds) = 1.12924

Total elapsed time (seconds) = 1.190 

Total DRAM available = 16384.000 MB.
DRAM currently available =  183.672 MB.
Maximum ngspice program size =   16.438 MB.
Current ngspice program size =   16.438 MB.

