
Note: No compatibility mode selected!


Circuit: GF180MCU library cell aoi21_4 A1_to_ZN__A2=1,B=0

Doing analysis at TEMP = -12.101203 and TNOM = 27.000000

Using SPARSE 1.3 as Direct Linear Solver

Initial Transient Solution
--------------------------

Node                                   Voltage
----                                   -------
vdd                                    1.63122
a1                                           0
a2                                     1.63122
b                                            0
xu1.net_0_0                           5.19e-12
zn                                     1.63122
xu1.net_0_1                        5.18948e-12
xu1.net_0_2                           5.19e-12
xu1.net_0_3                        5.18948e-12
xu1.net_1                              1.63122
vfix_b#branch                                0
vfix_a2#branch                               0
vin#branch                                   0
vdd#branch                        -1.31385e-11

 Reference value :  2.65625e-08
 Reference value :  6.09579e-08
 Reference value :  8.90379e-08
 Reference value :  1.16933e-07
 Reference value :  1.47758e-07
 Reference value :  1.79648e-07
 Reference value :  2.11543e-07
 Reference value :  2.42163e-07
 Reference value :  2.75468e-07
 Reference value :  3.06068e-07
 Reference value :  3.38778e-07
No. of Data Rows : 68032

  Measurements for Transient Analysis

tphl                =  1.71902e-09 targ=  2.77742e-08 trig=  2.60552e-08
tplh                =  3.40106e-09 targ=  1.03567e-07 trig=  1.00166e-07
i_vdd_avg           =  -1.02616e-06 from=  1.00000e-08 to=  3.30003e-07
power_avg_uw        =  1.67389e+00


Total analysis time (seconds) = 3.50438

Total elapsed time (seconds) = 3.571 

Total DRAM available = 16384.000 MB.
DRAM currently available =   89.734 MB.
Maximum ngspice program size =   14.375 MB.
Current ngspice program size =   14.375 MB.

