
Note: No compatibility mode selected!


Circuit: GF180MCU library cell nand3_1 A1_to_ZN__A2=1,A3=1

Doing analysis at TEMP = 48.899646 and TNOM = 27.000000

Using SPARSE 1.3 as Direct Linear Solver

Initial Transient Solution
--------------------------

Node                                   Voltage
----                                   -------
vdd                                    1.94327
a1                                           0
a2                                     1.94327
a3                                     1.94327
xu1.net_1                           2.2392e-08
xu1.net_0                           4.4784e-08
zn                                     1.94327
vfix_a3#branch                               0
vfix_a2#branch                               0
vin#branch                                   0
vdd#branch                        -7.32137e-12

 Reference value :  7.76849e-08
 Reference value :  1.79367e-07
 Reference value :  2.74877e-07
No. of Data Rows : 68030

  Measurements for Transient Analysis

tphl                =  3.03251e-10 targ=  2.43295e-08 trig=  2.40262e-08
tplh                =  3.30466e-10 targ=  9.44091e-08 trig=  9.40787e-08
i_vdd_avg           =  -1.53425e-07 from=  1.00000e-08 to=  3.30002e-07
power_avg_uw        =  2.98146e-01


Total analysis time (seconds) = 1.09097

Total elapsed time (seconds) = 1.162 

Total DRAM available = 16384.000 MB.
DRAM currently available =  147.000 MB.
Maximum ngspice program size =   14.484 MB.
Current ngspice program size =   14.484 MB.

