
Note: No compatibility mode selected!


Circuit: GF180MCU library cell oai21_4 A1_to_ZN__A2=0,B=1

Doing analysis at TEMP = 58.923446 and TNOM = 27.000000

Using SPARSE 1.3 as Direct Linear Solver

Initial Transient Solution
--------------------------

Node                                   Voltage
----                                   -------
vdd                                    1.74391
a1                                           0
a2                                           0
b                                      1.74391
zn                                     1.74391
xu1.net_0                           5.2391e-09
xu1.net_1_0                            1.74391
xu1.net_1_1                            1.74391
xu1.net_1_2                            1.74391
xu1.net_1_3                            1.74391
vfix_b#branch                                0
vfix_a2#branch                               0
vin#branch                                   0
vdd#branch                        -1.72759e-11

 Reference value :  2.25714e-08
 Reference value :  5.31275e-08
 Reference value :  8.28575e-08
 Reference value :  1.11723e-07
 Reference value :  1.38883e-07
 Reference value :  1.69688e-07
 Reference value :  2.00893e-07
 Reference value :  2.30123e-07
 Reference value :  2.60288e-07
 Reference value :  2.92618e-07
 Reference value :  3.23923e-07
No. of Data Rows : 68032

  Measurements for Transient Analysis

tphl                =  2.23919e-09 targ=  3.14667e-08 trig=  2.92275e-08
tplh                =  4.99047e-09 targ=  1.14673e-07 trig=  1.09683e-07
i_vdd_avg           =  -1.14660e-06 from=  1.00000e-08 to=  3.30003e-07
power_avg_uw        =  1.99957e+00


Total analysis time (seconds) = 3.7172

Total elapsed time (seconds) = 3.793 

Total DRAM available = 16384.000 MB.
DRAM currently available =   87.406 MB.
Maximum ngspice program size =   15.109 MB.
Current ngspice program size =   15.109 MB.

