
Note: No compatibility mode selected!


Circuit: GF180MCU library cell aoi21_1 A1_to_ZN__A2=1,B=0

Doing analysis at TEMP = 11.463444 and TNOM = 27.000000

Using SPARSE 1.3 as Direct Linear Solver

Initial Transient Solution
--------------------------

Node                                   Voltage
----                                   -------
vdd                                    1.63317
a1                                           0
a2                                     1.63317
b                                            0
xu1.net_0                          2.84023e-12
zn                                     1.63317
xu1.net_1                              1.63317
vfix_b#branch                                0
vfix_a2#branch                               0
vin#branch                                   0
vdd#branch                        -3.28712e-12

 Reference value :  7.34956e-08
 Reference value :  1.81644e-07
 Reference value :  2.86414e-07
No. of Data Rows : 68034

  Measurements for Transient Analysis

tphl                =  9.33730e-09 targ=  3.76439e-08 trig=  2.83066e-08
tplh                =  2.56111e-08 targ=  1.32531e-07 trig=  1.06920e-07
i_vdd_avg           =  -1.44548e-06 from=  1.00000e-08 to=  3.30004e-07
power_avg_uw        =  2.36072e+00


Total analysis time (seconds) = 1.05927

Total elapsed time (seconds) = 1.145 

Total DRAM available = 16384.000 MB.
DRAM currently available =   84.031 MB.
Maximum ngspice program size =   18.125 MB.
Current ngspice program size =   18.125 MB.

