
Note: No compatibility mode selected!


Circuit: GF180MCU library cell xor2_1 A1_to_Z__A2=0

Doing analysis at TEMP = 51.032646 and TNOM = 27.000000

Using SPARSE 1.3 as Direct Linear Solver

Initial Transient Solution
--------------------------

Node                                   Voltage
----                                   -------
vdd                                    1.78775
a1                                           0
a2                                           0
xu1.i                                  1.78775
z                                  5.65991e-08
xu1.net_0                           2.7476e-09
xu1.net_2                              1.78775
xu1.net_1                             0.803653
vfix_a2#branch                               0
vin#branch                                   0
vdd#branch                        -1.03339e-11

 Reference value :  4.53690e-08
 Reference value :  1.08254e-07
 Reference value :  1.74356e-07
 Reference value :  2.44309e-07
 Reference value :  3.08496e-07
No. of Data Rows : 68030

  Measurements for Transient Analysis

tplh                =  3.87965e-09 targ=  3.34479e-08 trig=  2.95683e-08
tphl                =  4.76718e-09 targ=  1.15472e-07 trig=  1.10705e-07
i_vdd_avg           =  -2.83918e-07 from=  1.00000e-08 to=  3.30001e-07
power_avg_uw        =  5.07573e-01


Total analysis time (seconds) = 1.82501

Total elapsed time (seconds) = 1.912 

Total DRAM available = 16384.000 MB.
DRAM currently available =  108.391 MB.
Maximum ngspice program size =   16.594 MB.
Current ngspice program size =   16.594 MB.

