
Note: No compatibility mode selected!


Circuit: GF180MCU library cell inv_1 I_to_ZN

Doing analysis at TEMP = -9.856889 and TNOM = 27.000000

Using SPARSE 1.3 as Direct Linear Solver

Initial Transient Solution
--------------------------

Node                                   Voltage
----                                   -------
vdd                                     1.7526
i                                            0
zn                                      1.7526
vin#branch                                   0
vdd#branch                        -1.76263e-12

 Reference value :  2.08579e-07
No. of Data Rows : 68032

  Measurements for Transient Analysis

tphl                =  2.11825e-09 targ=  2.88213e-08 trig=  2.67031e-08
tplh                =  3.48062e-09 targ=  1.05590e-07 trig=  1.02109e-07
i_vdd_avg           =  -3.04277e-07 from=  1.00000e-08 to=  3.30005e-07
power_avg_uw        =  5.33275e-01


Total analysis time (seconds) = 0.446772

Total elapsed time (seconds) = 0.508 

Total DRAM available = 16384.000 MB.
DRAM currently available =  109.594 MB.
Maximum ngspice program size =   16.812 MB.
Current ngspice program size =   16.812 MB.

