
Note: No compatibility mode selected!


Circuit: GF180MCU library cell xor2_1 A1_to_Z__A2=0

Doing analysis at TEMP = -11.945174 and TNOM = 27.000000

Using SPARSE 1.3 as Direct Linear Solver

Initial Transient Solution
--------------------------

Node                                   Voltage
----                                   -------
vdd                                    1.95924
a1                                           0
a2                                           0
xu1.i                                  1.95924
z                                  3.29592e-08
xu1.net_0                           1.0482e-10
xu1.net_2                              1.95924
xu1.net_1                             0.853144
vfix_a2#branch                               0
vin#branch                                   0
vdd#branch                        -1.12404e-11

 Reference value :  4.78967e-08
 Reference value :  1.13931e-07
 Reference value :  1.84493e-07
 Reference value :  2.55312e-07
 Reference value :  3.25051e-07
No. of Data Rows : 68032

  Measurements for Transient Analysis

tplh                =  2.52600e-09 targ=  3.00456e-08 trig=  2.75196e-08
tphl                =  2.52934e-09 targ=  1.07088e-07 trig=  1.04559e-07
i_vdd_avg           =  -5.47528e-07 from=  1.00000e-08 to=  3.30001e-07
power_avg_uw        =  1.07274e+00


Total analysis time (seconds) = 1.71209

Total elapsed time (seconds) = 1.784 

Total DRAM available = 16384.000 MB.
DRAM currently available =  100.250 MB.
Maximum ngspice program size =   16.266 MB.
Current ngspice program size =   16.266 MB.

