
Note: No compatibility mode selected!


Circuit: GF180MCU library cell aoi21_4 A1_to_ZN__A2=1,B=0

Doing analysis at TEMP = 3.394904 and TNOM = 27.000000

Using SPARSE 1.3 as Direct Linear Solver

Initial Transient Solution
--------------------------

Node                                   Voltage
----                                   -------
vdd                                    1.74048
a1                                           0
a2                                     1.74048
b                                            0
xu1.net_0_0                        1.12077e-12
zn                                     1.74048
xu1.net_0_1                        1.12071e-12
xu1.net_0_2                        1.12077e-12
xu1.net_0_3                        1.12071e-12
xu1.net_1                              1.74048
vfix_b#branch                                0
vfix_a2#branch                               0
vin#branch                                   0
vdd#branch                        -1.40053e-11

 Reference value :  2.38014e-08
 Reference value :  5.57753e-08
 Reference value :  8.72853e-08
 Reference value :  1.19133e-07
 Reference value :  1.50783e-07
 Reference value :  1.83383e-07
 Reference value :  2.13660e-07
 Reference value :  2.44210e-07
 Reference value :  2.71808e-07
 Reference value :  3.03428e-07
 Reference value :  3.36103e-07
No. of Data Rows : 68034

  Measurements for Transient Analysis

tphl                =  1.36670e-09 targ=  2.55106e-08 trig=  2.41439e-08
tplh                =  4.12558e-09 targ=  9.85572e-08 trig=  9.44317e-08
i_vdd_avg           =  -1.33863e-06 from=  1.00000e-08 to=  3.30003e-07
power_avg_uw        =  2.32985e+00


Total analysis time (seconds) = 3.43092

Total elapsed time (seconds) = 3.502 

Total DRAM available = 16384.000 MB.
DRAM currently available =  130.188 MB.
Maximum ngspice program size =   16.828 MB.
Current ngspice program size =   16.828 MB.

