
Note: No compatibility mode selected!


Circuit: GF180MCU library cell nand2_4 A1_to_ZN__A2=1

Doing analysis at TEMP = 112.012390 and TNOM = 27.000000

Using SPARSE 1.3 as Direct Linear Solver

Initial Transient Solution
--------------------------

Node                                   Voltage
----                                   -------
vdd                                    1.81339
a1                                           0
a2                                     1.81339
xu1.net_0_0                        7.11886e-07
zn                                     1.81339
xu1.net_0_1                        7.11886e-07
xu1.net_0_2                        7.11886e-07
xu1.net_0_3                        7.11886e-07
vfix_a2#branch                               0
vin#branch                                   0
vdd#branch                        -5.50377e-10

 Reference value :  2.89454e-08
 Reference value :  7.71754e-08
 Reference value :  1.26733e-07
 Reference value :  1.75918e-07
 Reference value :  2.27135e-07
 Reference value :  2.76443e-07
 Reference value :  3.25273e-07
No. of Data Rows : 68034

  Measurements for Transient Analysis

tphl                =  9.53439e-10 targ=  2.65799e-08 trig=  2.56264e-08
tplh                =  1.45167e-09 targ=  1.00331e-07 trig=  9.88793e-08
i_vdd_avg           =  -1.23352e-06 from=  1.00000e-08 to=  3.30003e-07
power_avg_uw        =  2.23684e+00


Total analysis time (seconds) = 2.20957

Total elapsed time (seconds) = 2.282 

Total DRAM available = 16384.000 MB.
DRAM currently available =  167.062 MB.
Maximum ngspice program size =   17.062 MB.
Current ngspice program size =   17.062 MB.

