
Note: No compatibility mode selected!


Circuit: GF180MCU library cell nor2_1 A1_to_ZN__A2=0

Doing analysis at TEMP = 103.563660 and TNOM = 27.000000

Using SPARSE 1.3 as Direct Linear Solver

Initial Transient Solution
--------------------------

Node                                   Voltage
----                                   -------
vdd                                    1.83092
a1                                           0
a2                                           0
zn                                     1.83091
xu1.net_0                              1.83092
vfix_a2#branch                               0
vin#branch                                   0
vdd#branch                        -1.85586e-10

 Reference value :  1.18623e-07
 Reference value :  2.71633e-07
No. of Data Rows : 68034

  Measurements for Transient Analysis

tphl                =  3.07498e-09 targ=  2.84014e-08 trig=  2.53264e-08
tplh                =  8.96766e-09 targ=  1.06947e-07 trig=  9.79791e-08
i_vdd_avg           =  -2.03564e-06 from=  1.00000e-08 to=  3.30003e-07
power_avg_uw        =  3.72708e+00


Total analysis time (seconds) = 0.685688

Total elapsed time (seconds) = 0.750 

Total DRAM available = 16384.000 MB.
DRAM currently available =   79.328 MB.
Maximum ngspice program size =   15.250 MB.
Current ngspice program size =   15.250 MB.

