
Note: No compatibility mode selected!


Circuit: GF180MCU library cell oai21_4 A1_to_ZN__A2=0,B=1

Doing analysis at TEMP = 20.173889 and TNOM = 27.000000

Using SPARSE 1.3 as Direct Linear Solver

Initial Transient Solution
--------------------------

Node                                   Voltage
----                                   -------
vdd                                    1.88136
a1                                           0
a2                                           0
b                                      1.88136
zn                                     1.88136
xu1.net_0                          5.79942e-09
xu1.net_1_0                            1.88136
xu1.net_1_1                            1.88136
xu1.net_1_2                            1.88136
xu1.net_1_3                            1.88136
vfix_b#branch                                0
vfix_a2#branch                               0
vin#branch                                   0
vdd#branch                        -2.09429e-11

 Reference value :  2.86315e-08
 Reference value :  6.10665e-08
 Reference value :  9.26265e-08
 Reference value :  1.21480e-07
 Reference value :  1.50545e-07
 Reference value :  1.80745e-07
 Reference value :  2.13151e-07
 Reference value :  2.42171e-07
 Reference value :  2.73815e-07
 Reference value :  3.03870e-07
 Reference value :  3.36970e-07
No. of Data Rows : 68032

  Measurements for Transient Analysis

tphl                =  8.90487e-10 targ=  2.63425e-08 trig=  2.54520e-08
tplh                =  1.93441e-09 targ=  1.00290e-07 trig=  9.83559e-08
i_vdd_avg           =  -1.34389e-06 from=  1.00000e-08 to=  3.30000e-07
power_avg_uw        =  2.52834e+00


Total analysis time (seconds) = 3.46914

Total elapsed time (seconds) = 3.537 

Total DRAM available = 16384.000 MB.
DRAM currently available =  106.984 MB.
Maximum ngspice program size =   16.453 MB.
Current ngspice program size =   16.453 MB.

