
Note: No compatibility mode selected!


Circuit: GF180MCU library cell nand2_4 A1_to_ZN__A2=1

Doing analysis at TEMP = 26.246504 and TNOM = 27.000000

Using SPARSE 1.3 as Direct Linear Solver

Initial Transient Solution
--------------------------

Node                                   Voltage
----                                   -------
vdd                                    1.67661
a1                                           0
a2                                     1.67661
xu1.net_0_0                        4.76044e-09
zn                                     1.67661
xu1.net_0_1                        4.76044e-09
xu1.net_0_2                        4.76044e-09
xu1.net_0_3                        4.76044e-09
vfix_a2#branch                               0
vin#branch                                   0
vdd#branch                        -1.08569e-11

 Reference value :  3.08575e-08
 Reference value :  7.85706e-08
 Reference value :  1.32134e-07
 Reference value :  1.81464e-07
 Reference value :  2.33376e-07
 Reference value :  2.84089e-07
 Reference value :  3.33824e-07
No. of Data Rows : 68034

  Measurements for Transient Analysis

tphl                =  3.02333e-10 targ=  2.90164e-08 trig=  2.87141e-08
tplh                =  1.66360e-09 targ=  1.09806e-07 trig=  1.08142e-07
i_vdd_avg           =  -4.38917e-07 from=  1.00000e-08 to=  3.30004e-07
power_avg_uw        =  7.35892e-01


Total analysis time (seconds) = 2.19358

Total elapsed time (seconds) = 2.274 

Total DRAM available = 16384.000 MB.
DRAM currently available =   94.203 MB.
Maximum ngspice program size =   18.438 MB.
Current ngspice program size =   18.438 MB.

