
Note: No compatibility mode selected!


Circuit: GF180MCU library cell mux2_1 I0_to_Z__I1=0,S=0

Doing analysis at TEMP = 37.545116 and TNOM = 27.000000

Using SPARSE 1.3 as Direct Linear Solver

Initial Transient Solution
--------------------------

Node                                   Voltage
----                                   -------
vdd                                    1.77255
i0                                           0
i1                                           0
s                                            0
xu1.int04                              1.77255
z                                  8.50289e-09
xu1.net_1                            0.0460997
xu1.net_3                              1.34088
xu1.sel1_n                             1.77255
xu1.net_0                              1.77255
xu1.net_2                              1.77255
vfix_s#branch                                0
vfix_i1#branch                               0
vin#branch                                   0
vdd#branch                        -2.43487e-11

 Reference value :  5.39648e-08
 Reference value :  1.17062e-07
 Reference value :  1.74137e-07
 Reference value :  2.34525e-07
 Reference value :  2.86372e-07
No. of Data Rows : 68030

  Measurements for Transient Analysis

tplh                =  2.17277e-09 targ=  3.15839e-08 trig=  2.94111e-08
tphl                =  3.36180e-09 targ=  1.13595e-07 trig=  1.10233e-07
i_vdd_avg           =  -1.03427e-06 from=  1.00000e-08 to=  3.30002e-07
power_avg_uw        =  1.83330e+00


Total analysis time (seconds) = 1.7995

Total elapsed time (seconds) = 1.859 

Total DRAM available = 16384.000 MB.
DRAM currently available =   87.844 MB.
Maximum ngspice program size =   14.656 MB.
Current ngspice program size =   14.656 MB.

