
Note: No compatibility mode selected!


Circuit: GF180MCU library cell aoi21_1 A1_to_ZN__A2=1,B=0

Doing analysis at TEMP = -14.339478 and TNOM = 27.000000

Using SPARSE 1.3 as Direct Linear Solver

Initial Transient Solution
--------------------------

Node                                   Voltage
----                                   -------
vdd                                    1.89442
a1                                           0
a2                                     1.89442
b                                            0
xu1.net_0                          1.36697e-10
zn                                     1.89442
xu1.net_1                              1.89442
vfix_b#branch                                0
vfix_a2#branch                               0
vin#branch                                   0
vdd#branch                        -3.89595e-12

 Reference value :  7.82741e-08
 Reference value :  1.88378e-07
 Reference value :  2.90176e-07
No. of Data Rows : 68030

  Measurements for Transient Analysis

tphl                =  3.04655e-09 targ=  3.08324e-08 trig=  2.77858e-08
tplh                =  6.10586e-09 targ=  1.11463e-07 trig=  1.05357e-07
i_vdd_avg           =  -1.38381e-06 from=  1.00000e-08 to=  3.30001e-07
power_avg_uw        =  2.62152e+00


Total analysis time (seconds) = 1.08387

Total elapsed time (seconds) = 1.167 

Total DRAM available = 16384.000 MB.
DRAM currently available =   98.141 MB.
Maximum ngspice program size =   19.734 MB.
Current ngspice program size =   19.734 MB.

