
Note: No compatibility mode selected!


Circuit: GF180MCU library cell mux2_1 I0_to_Z__I1=0,S=0

Doing analysis at TEMP = 20.854995 and TNOM = 27.000000

Using SPARSE 1.3 as Direct Linear Solver

Initial Transient Solution
--------------------------

Node                                   Voltage
----                                   -------
vdd                                    1.94518
i0                                           0
i1                                           0
s                                            0
xu1.int04                              1.94518
z                                  1.03819e-08
xu1.net_1                            0.0201211
xu1.net_3                              1.39506
xu1.sel1_n                             1.94518
xu1.net_0                              1.94518
xu1.net_2                              1.94518
vfix_s#branch                                0
vfix_i1#branch                               0
vin#branch                                   0
vdd#branch                        -1.10598e-11

 Reference value :  5.34662e-08
 Reference value :  1.10235e-07
 Reference value :  1.67715e-07
 Reference value :  2.25471e-07
 Reference value :  2.77005e-07
 Reference value :  3.35160e-07
No. of Data Rows : 68034

  Measurements for Transient Analysis

tplh                =  6.19270e-09 targ=  3.10771e-08 trig=  2.48844e-08
tphl                =  3.73559e-09 targ=  1.00389e-07 trig=  9.66531e-08
i_vdd_avg           =  -2.46295e-06 from=  1.00000e-08 to=  3.30005e-07
power_avg_uw        =  4.79087e+00


Total analysis time (seconds) = 1.86608

Total elapsed time (seconds) = 1.935 

Total DRAM available = 16384.000 MB.
DRAM currently available =   96.844 MB.
Maximum ngspice program size =   14.625 MB.
Current ngspice program size =   14.625 MB.

