
Note: No compatibility mode selected!


Circuit: GF180MCU library cell xor2_4 A1_to_Z__A2=0

Doing analysis at TEMP = 10.271764 and TNOM = 27.000000

Using SPARSE 1.3 as Direct Linear Solver

Initial Transient Solution
--------------------------

Node                                   Voltage
----                                   -------
vdd                                    1.66216
a1                                           0
a2                                           0
xu1.net_2                           0.00111785
xu1.i                                  1.66216
xu1.net_0                          4.92391e-12
xu1.z_neg                              1.66216
z                                  1.50439e-08
xu1.net_1                              1.66216
vfix_a2#branch                               0
vin#branch                                   0
vdd#branch                        -1.19715e-11

 Reference value :  2.89675e-08
 Reference value :  7.07022e-08
 Reference value :  1.14927e-07
 Reference value :  1.59717e-07
 Reference value :  1.97727e-07
 Reference value :  2.42467e-07
 Reference value :  2.87007e-07
 Reference value :  3.29287e-07
No. of Data Rows : 68032

  Measurements for Transient Analysis

tplh                =  5.11572e-09 targ=  3.29506e-08 trig=  2.78349e-08
tphl                =  6.42498e-09 targ=  1.11930e-07 trig=  1.05505e-07
i_vdd_avg           =  -1.35783e-06 from=  1.00000e-08 to=  3.30002e-07
power_avg_uw        =  2.25693e+00


Total analysis time (seconds) = 2.50567

Total elapsed time (seconds) = 2.589 

Total DRAM available = 16384.000 MB.
DRAM currently available =  128.172 MB.
Maximum ngspice program size =   16.156 MB.
Current ngspice program size =   16.156 MB.

