
Note: No compatibility mode selected!


Circuit: GF180MCU library cell nand2_4 A1_to_ZN__A2=1

Doing analysis at TEMP = 102.857020 and TNOM = 27.000000

Using SPARSE 1.3 as Direct Linear Solver

Initial Transient Solution
--------------------------

Node                                   Voltage
----                                   -------
vdd                                    1.83726
a1                                           0
a2                                     1.83726
xu1.net_0_0                        3.71605e-09
zn                                     1.83726
xu1.net_0_1                        3.71605e-09
xu1.net_0_2                        3.71605e-09
xu1.net_0_3                        3.71605e-09
vfix_a2#branch                               0
vin#branch                                   0
vdd#branch                        -8.96169e-12

 Reference value :  4.77794e-08
 Reference value :  9.50244e-08
 Reference value :  1.44301e-07
 Reference value :  1.93073e-07
 Reference value :  2.44584e-07
 Reference value :  2.96976e-07
No. of Data Rows : 68030

  Measurements for Transient Analysis

tphl                =  4.26453e-09 targ=  3.33005e-08 trig=  2.90360e-08
tplh                =  5.85431e-09 targ=  1.14962e-07 trig=  1.09108e-07
i_vdd_avg           =  -2.12990e-06 from=  1.00000e-08 to=  3.30001e-07
power_avg_uw        =  3.91319e+00


Total analysis time (seconds) = 2.07746

Total elapsed time (seconds) = 2.136 

Total DRAM available = 16384.000 MB.
DRAM currently available =  118.203 MB.
Maximum ngspice program size =   15.172 MB.
Current ngspice program size =   15.172 MB.

