
Note: No compatibility mode selected!


Circuit: GF180MCU library cell aoi21_4 A1_to_ZN__A2=1,B=0

Doing analysis at TEMP = 86.914444 and TNOM = 27.000000

Using SPARSE 1.3 as Direct Linear Solver

Initial Transient Solution
--------------------------

Node                                   Voltage
----                                   -------
vdd                                    1.64586
a1                                           0
a2                                     1.64586
b                                            0
xu1.net_0_0                        2.14113e-07
zn                                     1.64586
xu1.net_0_1                        2.14113e-07
xu1.net_0_2                        2.14113e-07
xu1.net_0_3                        2.14113e-07
xu1.net_1                              1.64586
vfix_b#branch                                0
vfix_a2#branch                               0
vin#branch                                   0
vdd#branch                        -3.33986e-10

 Reference value :  2.33114e-08
 Reference value :  5.65105e-08
 Reference value :  8.84455e-08
 Reference value :  1.19573e-07
 Reference value :  1.50293e-07
 Reference value :  1.81833e-07
 Reference value :  2.12915e-07
 Reference value :  2.46355e-07
 Reference value :  2.76193e-07
 Reference value :  3.07913e-07
 Reference value :  3.37938e-07
No. of Data Rows : 68034

  Measurements for Transient Analysis

tphl                =  7.26134e-10 targ=  2.69376e-08 trig=  2.62115e-08
tplh                =  1.80219e-09 targ=  1.02437e-07 trig=  1.00634e-07
i_vdd_avg           =  -6.16127e-07 from=  1.00000e-08 to=  3.30003e-07
power_avg_uw        =  1.01406e+00


Total analysis time (seconds) = 3.4301

Total elapsed time (seconds) = 3.498 

Total DRAM available = 16384.000 MB.
DRAM currently available =   89.734 MB.
Maximum ngspice program size =   15.250 MB.
Current ngspice program size =   15.250 MB.

