
Note: No compatibility mode selected!


Circuit: GF180MCU library cell nor2_1 A1_to_ZN__A2=0

Doing analysis at TEMP = 65.464532 and TNOM = 27.000000

Using SPARSE 1.3 as Direct Linear Solver

Initial Transient Solution
--------------------------

Node                                   Voltage
----                                   -------
vdd                                    1.86192
a1                                           0
a2                                           0
zn                                     1.86192
xu1.net_0                              1.86192
vfix_a2#branch                               0
vin#branch                                   0
vdd#branch                        -3.82022e-12

 Reference value :  1.00568e-07
 Reference value :  2.57468e-07
No. of Data Rows : 68034

  Measurements for Transient Analysis

tphl                =  5.06786e-09 targ=  2.93893e-08 trig=  2.43214e-08
tplh                =  1.80921e-08 targ=  1.13056e-07 trig=  9.49642e-08
i_vdd_avg           =  -1.86915e-06 from=  1.00000e-08 to=  3.30003e-07
power_avg_uw        =  3.48021e+00


Total analysis time (seconds) = 0.759524

Total elapsed time (seconds) = 0.833 

Total DRAM available = 16384.000 MB.
DRAM currently available =  131.391 MB.
Maximum ngspice program size =   18.094 MB.
Current ngspice program size =   18.094 MB.

