
Note: No compatibility mode selected!


Circuit: GF180MCU library cell xor2_1 A1_to_Z__A2=0

Doing analysis at TEMP = -0.159725 and TNOM = 27.000000

Using SPARSE 1.3 as Direct Linear Solver

Initial Transient Solution
--------------------------

Node                                   Voltage
----                                   -------
vdd                                    1.71576
a1                                           0
a2                                           0
xu1.i                                  1.71576
z                                  2.76937e-08
xu1.net_0                          5.93294e-09
xu1.net_2                              1.71576
xu1.net_1                             0.670413
vfix_a2#branch                               0
vin#branch                                   0
vdd#branch                        -1.10836e-11

 Reference value :  4.62040e-08
 Reference value :  1.19475e-07
 Reference value :  1.87353e-07
 Reference value :  2.58274e-07
 Reference value :  3.30625e-07
No. of Data Rows : 68030

  Measurements for Transient Analysis

tplh                =  4.32828e-09 targ=  3.25115e-08 trig=  2.81832e-08
tphl                =  2.98016e-09 targ=  1.09530e-07 trig=  1.06550e-07
i_vdd_avg           =  -1.04209e-06 from=  1.00000e-08 to=  3.30000e-07
power_avg_uw        =  1.78798e+00


Total analysis time (seconds) = 1.58269

Total elapsed time (seconds) = 1.650 

Total DRAM available = 16384.000 MB.
DRAM currently available =  159.375 MB.
Maximum ngspice program size =   16.531 MB.
Current ngspice program size =   16.531 MB.

