
Note: No compatibility mode selected!


Circuit: GF180MCU library cell oai21_1 A1_to_ZN__A2=0,B=1

Doing analysis at TEMP = 62.098958 and TNOM = 27.000000

Using SPARSE 1.3 as Direct Linear Solver

Initial Transient Solution
--------------------------

Node                                   Voltage
----                                   -------
vdd                                    1.77261
a1                                           0
a2                                           0
b                                      1.77261
zn                                     1.77261
xu1.net_0                          4.80581e-10
xu1.net_1                              1.77261
vfix_b#branch                                0
vfix_a2#branch                               0
vin#branch                                   0
vdd#branch                        -3.61863e-12

 Reference value :  1.05208e-07
 Reference value :  2.34068e-07
 Reference value :  3.30544e-07
No. of Data Rows : 68032

  Measurements for Transient Analysis

tphl                =  1.15151e-08 targ=  4.08029e-08 trig=  2.92878e-08
tplh                =  2.91780e-08 targ=  1.39042e-07 trig=  1.09864e-07
i_vdd_avg           =  -2.18935e-06 from=  1.00000e-08 to=  3.30004e-07
power_avg_uw        =  3.88087e+00


Total analysis time (seconds) = 0.810497

Total elapsed time (seconds) = 0.870 

Total DRAM available = 16384.000 MB.
DRAM currently available =  109.344 MB.
Maximum ngspice program size =   12.797 MB.
Current ngspice program size =   12.750 MB.

