
Note: No compatibility mode selected!


Circuit: GF180MCU library cell oai21_4 A1_to_ZN__A2=0,B=1

Doing analysis at TEMP = -10.533171 and TNOM = 27.000000

Using SPARSE 1.3 as Direct Linear Solver

Initial Transient Solution
--------------------------

Node                                   Voltage
----                                   -------
vdd                                    1.85446
a1                                           0
a2                                           0
b                                      1.85446
zn                                     1.85446
xu1.net_0                          3.99779e-10
xu1.net_1_0                            1.85446
xu1.net_1_1                            1.85446
xu1.net_1_2                            1.85446
xu1.net_1_3                            1.85446
vfix_b#branch                                0
vfix_a2#branch                               0
vin#branch                                   0
vdd#branch                        -1.53472e-11

 Reference value :  2.26564e-08
 Reference value :  5.32166e-08
 Reference value :  8.32816e-08
 Reference value :  1.10557e-07
 Reference value :  1.40706e-07
 Reference value :  1.71451e-07
 Reference value :  2.02162e-07
 Reference value :  2.30407e-07
 Reference value :  2.62567e-07
 Reference value :  2.94051e-07
 Reference value :  3.24911e-07
No. of Data Rows : 68032

  Measurements for Transient Analysis

tphl                =  1.27899e-09 targ=  2.96610e-08 trig=  2.83820e-08
tplh                =  3.48166e-09 targ=  1.10628e-07 trig=  1.07146e-07
i_vdd_avg           =  -1.61555e-06 from=  1.00000e-08 to=  3.30001e-07
power_avg_uw        =  2.99597e+00


Total analysis time (seconds) = 3.72255

Total elapsed time (seconds) = 3.801 

Total DRAM available = 16384.000 MB.
DRAM currently available =   87.406 MB.
Maximum ngspice program size =   17.531 MB.
Current ngspice program size =   17.531 MB.

