
Note: No compatibility mode selected!


Circuit: GF180MCU library cell nand3_1 A1_to_ZN__A2=1,A3=1

Doing analysis at TEMP = 25.970955 and TNOM = 27.000000

Using SPARSE 1.3 as Direct Linear Solver

Initial Transient Solution
--------------------------

Node                                   Voltage
----                                   -------
vdd                                    1.91208
a1                                           0
a2                                     1.91208
a3                                     1.91208
xu1.net_1                          1.97463e-10
xu1.net_0                          3.94927e-10
zn                                     1.91208
vfix_a3#branch                               0
vfix_a2#branch                               0
vin#branch                                   0
vdd#branch                        -1.95974e-12

 Reference value :  9.76020e-08
 Reference value :  1.98642e-07
 Reference value :  3.01476e-07
No. of Data Rows : 68032

  Measurements for Transient Analysis

tphl                =  3.87895e-09 targ=  3.17262e-08 trig=  2.78472e-08
tplh                =  4.88802e-09 targ=  1.10430e-07 trig=  1.05542e-07
i_vdd_avg           =  -8.76544e-07 from=  1.00000e-08 to=  3.30001e-07
power_avg_uw        =  1.67602e+00


Total analysis time (seconds) = 0.986376

Total elapsed time (seconds) = 1.052 

Total DRAM available = 16384.000 MB.
DRAM currently available =  139.406 MB.
Maximum ngspice program size =   15.719 MB.
Current ngspice program size =   15.719 MB.

