
Note: No compatibility mode selected!


Circuit: GF180MCU library cell inv_4 I_to_ZN

Doing analysis at TEMP = 101.832540 and TNOM = 27.000000

Using SPARSE 1.3 as Direct Linear Solver

Initial Transient Solution
--------------------------

Node                                   Voltage
----                                   -------
vdd                                    1.94435
i                                            0
zn                                     1.94435
vin#branch                                   0
vdd#branch                        -3.73482e-10

 Reference value :  6.50891e-08
 Reference value :  1.63136e-07
 Reference value :  2.67174e-07
No. of Data Rows : 68030

  Measurements for Transient Analysis

tphl                =  -3.55218e-10 targ=  2.92056e-08 trig=  2.95608e-08
tplh                =  1.54872e-09 targ=  1.12231e-07 trig=  1.10682e-07
i_vdd_avg           =  -1.27907e-06 from=  1.00000e-08 to=  3.30001e-07
power_avg_uw        =  2.48696e+00


Total analysis time (seconds) = 1.11688

Total elapsed time (seconds) = 1.179 

Total DRAM available = 16384.000 MB.
DRAM currently available =  126.062 MB.
Maximum ngspice program size =   16.922 MB.
Current ngspice program size =   16.922 MB.

