
Note: No compatibility mode selected!


Circuit: GF180MCU library cell inv_4 I_to_ZN

Doing analysis at TEMP = 85.927370 and TNOM = 27.000000

Using SPARSE 1.3 as Direct Linear Solver

Initial Transient Solution
--------------------------

Node                                   Voltage
----                                   -------
vdd                                    1.70647
i                                            0
zn                                     1.70647
vin#branch                                   0
vdd#branch                        -1.59438e-10

 Reference value :  7.25725e-08
 Reference value :  1.67137e-07
 Reference value :  2.65762e-07
No. of Data Rows : 68032

  Measurements for Transient Analysis

tphl                =  1.32156e-09 targ=  3.04790e-08 trig=  2.91575e-08
tplh                =  3.34822e-09 targ=  1.12821e-07 trig=  1.09472e-07
i_vdd_avg           =  -1.88865e-06 from=  1.00000e-08 to=  3.30002e-07
power_avg_uw        =  3.22293e+00


Total analysis time (seconds) = 1.21422

Total elapsed time (seconds) = 1.291 

Total DRAM available = 16384.000 MB.
DRAM currently available =  109.328 MB.
Maximum ngspice program size =   16.531 MB.
Current ngspice program size =   16.531 MB.

