
Note: No compatibility mode selected!


Circuit: GF180MCU library cell aoi21_1 A1_to_ZN__A2=1,B=0

Doing analysis at TEMP = 76.728697 and TNOM = 27.000000

Using SPARSE 1.3 as Direct Linear Solver

Initial Transient Solution
--------------------------

Node                                   Voltage
----                                   -------
vdd                                     1.7287
a1                                           0
a2                                      1.7287
b                                            0
xu1.net_0                          8.54417e-09
zn                                      1.7287
xu1.net_1                               1.7287
vfix_b#branch                                0
vfix_a2#branch                               0
vin#branch                                   0
vdd#branch                        -6.20264e-12

 Reference value :  8.62023e-08
 Reference value :  1.89033e-07
 Reference value :  2.96917e-07
No. of Data Rows : 68032

  Measurements for Transient Analysis

tphl                =  4.28711e-09 targ=  3.28795e-08 trig=  2.85924e-08
tplh                =  8.75504e-09 targ=  1.16532e-07 trig=  1.07777e-07
i_vdd_avg           =  -8.62689e-07 from=  1.00000e-08 to=  3.30002e-07
power_avg_uw        =  1.49133e+00


Total analysis time (seconds) = 0.996815

Total elapsed time (seconds) = 1.062 

Total DRAM available = 16384.000 MB.
DRAM currently available =  116.797 MB.
Maximum ngspice program size =   15.766 MB.
Current ngspice program size =   15.766 MB.

