
Note: No compatibility mode selected!


Circuit: GF180MCU library cell nand2_1 A1_to_ZN__A2=1

Doing analysis at TEMP = 57.736237 and TNOM = 27.000000

Using SPARSE 1.3 as Direct Linear Solver

Initial Transient Solution
--------------------------

Node                                   Voltage
----                                   -------
vdd                                    1.92904
a1                                           0
a2                                     1.92904
xu1.net_0                          3.92666e-08
zn                                     1.92904
vfix_a2#branch                               0
vin#branch                                   0
vdd#branch                        -1.10637e-11

 Reference value :  1.35372e-07
 Reference value :  2.92457e-07
No. of Data Rows : 68030

  Measurements for Transient Analysis

tphl                =  2.36398e-09 targ=  3.00551e-08 trig=  2.76911e-08
tplh                =  3.54811e-09 targ=  1.08621e-07 trig=  1.05073e-07
i_vdd_avg           =  -9.70131e-07 from=  1.00000e-08 to=  3.30002e-07
power_avg_uw        =  1.87143e+00


Total analysis time (seconds) = 0.638852

Total elapsed time (seconds) = 0.690 

Total DRAM available = 16384.000 MB.
DRAM currently available =  120.531 MB.
Maximum ngspice program size =   12.719 MB.
Current ngspice program size =   12.719 MB.

