
Note: No compatibility mode selected!


Circuit: GF180MCU library cell inv_1 I_to_ZN

Doing analysis at TEMP = 54.779609 and TNOM = 27.000000

Using SPARSE 1.3 as Direct Linear Solver

Initial Transient Solution
--------------------------

Node                                   Voltage
----                                   -------
vdd                                    1.71883
i                                            0
zn                                     1.71883
vin#branch                                   0
vdd#branch                        -1.74392e-12

 Reference value :  2.60699e-07
No. of Data Rows : 68032

  Measurements for Transient Analysis

tphl                =  6.35005e-09 targ=  3.38956e-08 trig=  2.75456e-08
tplh                =  1.38167e-08 targ=  1.18453e-07 trig=  1.04637e-07
i_vdd_avg           =  -1.91468e-06 from=  1.00000e-08 to=  3.30005e-07
power_avg_uw        =  3.29100e+00


Total analysis time (seconds) = 0.324003

Total elapsed time (seconds) = 0.385 

Total DRAM available = 16384.000 MB.
DRAM currently available =  126.141 MB.
Maximum ngspice program size =   15.875 MB.
Current ngspice program size =   15.875 MB.

