
Note: No compatibility mode selected!


Circuit: GF180MCU library cell nor2_4 A1_to_ZN__A2=0

Doing analysis at TEMP = 22.437002 and TNOM = 27.000000

Using SPARSE 1.3 as Direct Linear Solver

Initial Transient Solution
--------------------------

Node                                   Voltage
----                                   -------
vdd                                    1.94849
a1                                           0
a2                                           0
zn                                     1.94849
xu1.net_0_0                            1.94849
xu1.net_0_1                            1.94849
xu1.net_0_2                            1.94849
xu1.net_0_3                            1.94849
vfix_a2#branch                               0
vin#branch                                   0
vdd#branch                        -1.56777e-11

 Reference value :  3.01528e-08
 Reference value :  7.84428e-08
 Reference value :  1.28553e-07
 Reference value :  1.76758e-07
 Reference value :  2.21463e-07
 Reference value :  2.69238e-07
 Reference value :  3.19453e-07
No. of Data Rows : 68032

  Measurements for Transient Analysis

tphl                =  1.19983e-09 targ=  2.55200e-08 trig=  2.43201e-08
tplh                =  3.76517e-09 targ=  9.87256e-08 trig=  9.49604e-08
i_vdd_avg           =  -1.84503e-06 from=  1.00000e-08 to=  3.30003e-07
power_avg_uw        =  3.59503e+00


Total analysis time (seconds) = 2.27189

Total elapsed time (seconds) = 2.361 

Total DRAM available = 16384.000 MB.
DRAM currently available =  134.375 MB.
Maximum ngspice program size =   17.734 MB.
Current ngspice program size =   17.734 MB.

