
Note: No compatibility mode selected!


Circuit: GF180MCU library cell aoi21_4 A1_to_ZN__A2=1,B=0

Doing analysis at TEMP = 80.623749 and TNOM = 27.000000

Using SPARSE 1.3 as Direct Linear Solver

Initial Transient Solution
--------------------------

Node                                   Voltage
----                                   -------
vdd                                    1.72434
a1                                           0
a2                                     1.72434
b                                            0
xu1.net_0_0                        1.08988e-08
zn                                     1.72434
xu1.net_0_1                        1.08988e-08
xu1.net_0_2                        1.08988e-08
xu1.net_0_3                        1.08988e-08
xu1.net_1                              1.72434
vfix_b#branch                                0
vfix_a2#branch                               0
vin#branch                                   0
vdd#branch                         -2.7555e-11

 Reference value :  2.27514e-08
 Reference value :  5.41802e-08
 Reference value :  8.55402e-08
 Reference value :  1.17383e-07
 Reference value :  1.48488e-07
 Reference value :  1.80908e-07
 Reference value :  2.12305e-07
 Reference value :  2.42390e-07
 Reference value :  2.72173e-07
 Reference value :  3.01938e-07
 Reference value :  3.29073e-07
No. of Data Rows : 68034

  Measurements for Transient Analysis

tphl                =  9.67015e-10 targ=  2.73909e-08 trig=  2.64239e-08
tplh                =  2.08936e-09 targ=  1.03361e-07 trig=  1.01272e-07
i_vdd_avg           =  -4.57341e-07 from=  1.00000e-08 to=  3.30003e-07
power_avg_uw        =  7.88609e-01


Total analysis time (seconds) = 3.53554

Total elapsed time (seconds) = 3.598 

Total DRAM available = 16384.000 MB.
DRAM currently available =  117.125 MB.
Maximum ngspice program size =   14.469 MB.
Current ngspice program size =   14.469 MB.

