
Note: No compatibility mode selected!


Circuit: GF180MCU library cell inv_1 I_to_ZN

Doing analysis at TEMP = 103.407380 and TNOM = 27.000000

Using SPARSE 1.3 as Direct Linear Solver

Initial Transient Solution
--------------------------

Node                                   Voltage
----                                   -------
vdd                                    1.91781
i                                            0
zn                                     1.91781
vin#branch                                   0
vdd#branch                         -9.9016e-11

 Reference value :  2.11232e-07
No. of Data Rows : 68032

  Measurements for Transient Analysis

tphl                =  3.50969e-09 targ=  3.30794e-08 trig=  2.95697e-08
tplh                =  6.34596e-09 targ=  1.17055e-07 trig=  1.10709e-07
i_vdd_avg           =  -2.09734e-06 from=  1.00000e-08 to=  3.30001e-07
power_avg_uw        =  4.02231e+00


Total analysis time (seconds) = 0.421188

Total elapsed time (seconds) = 0.492 

Total DRAM available = 16384.000 MB.
DRAM currently available =  109.594 MB.
Maximum ngspice program size =   18.703 MB.
Current ngspice program size =   18.703 MB.

