
Note: No compatibility mode selected!


Circuit: GF180MCU library cell xor2_1 A1_to_Z__A2=0

Doing analysis at TEMP = 58.913458 and TNOM = 27.000000

Using SPARSE 1.3 as Direct Linear Solver

Initial Transient Solution
--------------------------

Node                                   Voltage
----                                   -------
vdd                                    1.76874
a1                                           0
a2                                           0
xu1.i                                  1.76874
z                                  5.83944e-08
xu1.net_0                          4.81725e-09
xu1.net_2                              1.76874
xu1.net_1                             0.784835
vfix_a2#branch                               0
vin#branch                                   0
vdd#branch                        -1.03816e-11

 Reference value :  5.43529e-08
 Reference value :  1.25538e-07
 Reference value :  1.99038e-07
 Reference value :  2.67878e-07
 Reference value :  3.35963e-07
No. of Data Rows : 68032

  Measurements for Transient Analysis

tplh                =  8.26713e-09 targ=  3.48423e-08 trig=  2.65752e-08
tphl                =  4.41819e-09 targ=  1.06144e-07 trig=  1.01726e-07
i_vdd_avg           =  -6.72766e-07 from=  1.00000e-08 to=  3.30003e-07
power_avg_uw        =  1.18995e+00


Total analysis time (seconds) = 1.53608

Total elapsed time (seconds) = 1.597 

Total DRAM available = 16384.000 MB.
DRAM currently available =  100.250 MB.
Maximum ngspice program size =   17.641 MB.
Current ngspice program size =   17.641 MB.

