
Note: No compatibility mode selected!


Circuit: GF180MCU library cell mux2_4 I0_to_Z__I1=0,S=0

Doing analysis at TEMP = 57.026000 and TNOM = 27.000000

Using SPARSE 1.3 as Direct Linear Solver

Initial Transient Solution
--------------------------

Node                                   Voltage
----                                   -------
vdd                                    1.77388
i0                                           0
i1                                           0
s                                            0
xu1.int04                              1.77388
z                                   9.2278e-09
xu1.net_1                             0.046321
xu1.net_3                              1.31736
xu1.sel1_n                             1.77388
xu1.net_0                              1.77388
xu1.net_2                              1.77388
vfix_s#branch                                0
vfix_i1#branch                               0
vin#branch                                   0
vdd#branch                        -3.19024e-11

 Reference value :  3.58638e-08
 Reference value :  7.48138e-08
 Reference value :  1.13315e-07
 Reference value :  1.53830e-07
 Reference value :  1.91324e-07
 Reference value :  2.30854e-07
 Reference value :  2.70150e-07
 Reference value :  3.11910e-07
No. of Data Rows : 68030

  Measurements for Transient Analysis

tplh                =  1.52718e-09 targ=  2.72278e-08 trig=  2.57006e-08
tphl                =  2.02741e-09 targ=  1.01129e-07 trig=  9.91019e-08
i_vdd_avg           =  -1.50692e-06 from=  1.00000e-08 to=  3.30000e-07
power_avg_uw        =  2.67309e+00


Total analysis time (seconds) = 2.71377

Total elapsed time (seconds) = 2.778 

Total DRAM available = 16384.000 MB.
DRAM currently available =  147.734 MB.
Maximum ngspice program size =   13.516 MB.
Current ngspice program size =   13.516 MB.

