
Note: No compatibility mode selected!


Circuit: GF180MCU library cell nor2_1 A1_to_ZN__A2=0

Doing analysis at TEMP = -27.302682 and TNOM = 27.000000

Using SPARSE 1.3 as Direct Linear Solver

Initial Transient Solution
--------------------------

Node                                   Voltage
----                                   -------
vdd                                    1.62819
a1                                           0
a2                                           0
zn                                     1.62819
xu1.net_0                              1.62819
vfix_a2#branch                               0
vin#branch                                   0
vdd#branch                        -3.29644e-12

 Reference value :  9.97883e-08
 Reference value :  2.49728e-07
No. of Data Rows : 68032

  Measurements for Transient Analysis

tphl                =  4.28760e-09 targ=  3.36180e-08 trig=  2.93304e-08
tplh                =  9.58627e-09 targ=  1.19578e-07 trig=  1.09991e-07
i_vdd_avg           =  -1.39825e-06 from=  1.00000e-08 to=  3.30004e-07
power_avg_uw        =  2.27661e+00


Total analysis time (seconds) = 0.806219

Total elapsed time (seconds) = 0.874 

Total DRAM available = 16384.000 MB.
DRAM currently available =   84.797 MB.
Maximum ngspice program size =   13.875 MB.
Current ngspice program size =   13.875 MB.

