
Note: No compatibility mode selected!


Circuit: GF180MCU library cell nor2_4 A1_to_ZN__A2=0

Doing analysis at TEMP = 113.320710 and TNOM = 27.000000

Using SPARSE 1.3 as Direct Linear Solver

Initial Transient Solution
--------------------------

Node                                   Voltage
----                                   -------
vdd                                    1.84102
a1                                           0
a2                                           0
zn                                     1.84102
xu1.net_0_0                            1.84102
xu1.net_0_1                            1.84102
xu1.net_0_2                            1.84102
xu1.net_0_3                            1.84102
vfix_a2#branch                               0
vin#branch                                   0
vdd#branch                         -9.2682e-11

 Reference value :  3.22866e-08
 Reference value :  7.72016e-08
 Reference value :  1.24661e-07
 Reference value :  1.75091e-07
 Reference value :  2.23752e-07
 Reference value :  2.71171e-07
 Reference value :  3.18821e-07
No. of Data Rows : 68032

  Measurements for Transient Analysis

tphl                =  1.81049e-09 targ=  2.92925e-08 trig=  2.74821e-08
tplh                =  3.87140e-09 targ=  1.08318e-07 trig=  1.04446e-07
i_vdd_avg           =  -1.42942e-06 from=  1.00000e-08 to=  3.30001e-07
power_avg_uw        =  2.63159e+00


Total analysis time (seconds) = 2.29372

Total elapsed time (seconds) = 2.353 

Total DRAM available = 16384.000 MB.
DRAM currently available =  135.672 MB.
Maximum ngspice program size =   14.703 MB.
Current ngspice program size =   14.703 MB.

