
Note: No compatibility mode selected!


Circuit: GF180MCU library cell inv_4 I_to_ZN

Doing analysis at TEMP = 9.743133 and TNOM = 27.000000

Using SPARSE 1.3 as Direct Linear Solver

Initial Transient Solution
--------------------------

Node                                   Voltage
----                                   -------
vdd                                    1.64865
i                                            0
zn                                     1.64865
vin#branch                                   0
vdd#branch                        -7.77748e-12

 Reference value :  6.53981e-08
 Reference value :  1.63579e-07
 Reference value :  2.57934e-07
No. of Data Rows : 68032

  Measurements for Transient Analysis

tphl                =  8.97933e-10 targ=  2.58207e-08 trig=  2.49228e-08
tplh                =  1.64056e-09 targ=  9.84089e-08 trig=  9.67684e-08
i_vdd_avg           =  -1.85762e-06 from=  1.00000e-08 to=  3.30004e-07
power_avg_uw        =  3.06256e+00


Total analysis time (seconds) = 1.13577

Total elapsed time (seconds) = 1.209 

Total DRAM available = 16384.000 MB.
DRAM currently available =  140.766 MB.
Maximum ngspice program size =   17.438 MB.
Current ngspice program size =   17.438 MB.

