
Note: No compatibility mode selected!


Circuit: GF180MCU library cell xor2_1 A1_to_Z__A2=0

Doing analysis at TEMP = 95.527738 and TNOM = 27.000000

Using SPARSE 1.3 as Direct Linear Solver

Initial Transient Solution
--------------------------

Node                                   Voltage
----                                   -------
vdd                                    1.80995
a1                                           0
a2                                           0
xu1.i                                  1.80994
z                                  4.27399e-08
xu1.net_0                          2.13165e-08
xu1.net_2                              1.80994
xu1.net_1                              0.53323
vfix_a2#branch                               0
vin#branch                                   0
vdd#branch                        -3.06955e-10

 Reference value :  4.12323e-08
 Reference value :  1.11932e-07
 Reference value :  1.85487e-07
 Reference value :  2.61017e-07
 Reference value :  3.29457e-07
No. of Data Rows : 68032

  Measurements for Transient Analysis

tplh                =  8.07700e-09 targ=  3.26994e-08 trig=  2.46224e-08
tphl                =  2.62876e-09 targ=  9.84960e-08 trig=  9.58672e-08
i_vdd_avg           =  -1.90303e-06 from=  1.00000e-08 to=  3.30002e-07
power_avg_uw        =  3.44439e+00


Total analysis time (seconds) = 1.57269

Total elapsed time (seconds) = 1.646 

Total DRAM available = 16384.000 MB.
DRAM currently available =  100.250 MB.
Maximum ngspice program size =   16.703 MB.
Current ngspice program size =   16.703 MB.

