
Note: No compatibility mode selected!


Circuit: GF180MCU library cell oai21_1 A1_to_ZN__A2=0,B=1

Doing analysis at TEMP = -19.866081 and TNOM = 27.000000

Using SPARSE 1.3 as Direct Linear Solver

Initial Transient Solution
--------------------------

Node                                   Voltage
----                                   -------
vdd                                    1.97423
a1                                           0
a2                                           0
b                                      1.97423
zn                                     1.97423
xu1.net_0                          1.22118e-13
xu1.net_1                              1.97423
vfix_b#branch                                0
vfix_a2#branch                               0
vin#branch                                   0
vdd#branch                        -3.96848e-12

 Reference value :  8.40701e-08
 Reference value :  1.90630e-07
 Reference value :  2.91313e-07
No. of Data Rows : 68034

  Measurements for Transient Analysis

tphl                =  3.92189e-09 targ=  3.02307e-08 trig=  2.63088e-08
tplh                =  9.08992e-09 targ=  1.10016e-07 trig=  1.00926e-07
i_vdd_avg           =  -1.12776e-06 from=  1.00000e-08 to=  3.30003e-07
power_avg_uw        =  2.22646e+00


Total analysis time (seconds) = 1.01001

Total elapsed time (seconds) = 1.066 

Total DRAM available = 16384.000 MB.
DRAM currently available =  105.797 MB.
Maximum ngspice program size =   12.844 MB.
Current ngspice program size =   12.734 MB.

