
Note: No compatibility mode selected!


Circuit: GF180MCU library cell nand3_4 A1_to_ZN__A2=1,A3=1

Doing analysis at TEMP = 99.385136 and TNOM = 27.000000

Using SPARSE 1.3 as Direct Linear Solver

Initial Transient Solution
--------------------------

Node                                   Voltage
----                                   -------
vdd                                    1.89605
a1                                           0
a2                                     1.89605
a3                                     1.89605
xu1.net_1_3                        2.94024e-09
xu1.net_0                          5.88047e-09
xu1.net_1_2                        2.94024e-09
xu1.net_1_1                        2.94024e-09
xu1.net_1_0                        2.94024e-09
xu1.net_0_0                        5.88047e-09
zn                                     1.89605
vfix_a3#branch                               0
vfix_a2#branch                               0
vin#branch                                   0
vdd#branch                        -8.93473e-12

 Reference value :  2.92825e-08
 Reference value :  6.01387e-08
 Reference value :  9.07587e-08
 Reference value :  1.19785e-07
 Reference value :  1.49160e-07
 Reference value :  1.80295e-07
 Reference value :  2.12129e-07
 Reference value :  2.44224e-07
 Reference value :  2.72695e-07
 Reference value :  3.03370e-07
 Reference value :  3.34280e-07
No. of Data Rows : 68032

  Measurements for Transient Analysis

tphl                =  2.29643e-09 targ=  3.02345e-08 trig=  2.79381e-08
tplh                =  3.27693e-09 targ=  1.09091e-07 trig=  1.05814e-07
i_vdd_avg           =  -7.37072e-07 from=  1.00000e-08 to=  3.30005e-07
power_avg_uw        =  1.39753e+00


Total analysis time (seconds) = 3.70327

Total elapsed time (seconds) = 3.763 

Total DRAM available = 16384.000 MB.
DRAM currently available =   92.781 MB.
Maximum ngspice program size =   15.516 MB.
Current ngspice program size =   15.516 MB.

