
Note: No compatibility mode selected!


Circuit: GF180MCU library cell xor2_1 A1_to_Z__A2=0

Doing analysis at TEMP = 32.528009 and TNOM = 27.000000

Using SPARSE 1.3 as Direct Linear Solver

Initial Transient Solution
--------------------------

Node                                   Voltage
----                                   -------
vdd                                     1.8527
a1                                           0
a2                                           0
xu1.i                                   1.8527
z                                  3.92818e-08
xu1.net_0                          5.80789e-09
xu1.net_2                               1.8527
xu1.net_1                             0.749022
vfix_a2#branch                               0
vin#branch                                   0
vdd#branch                        -1.14655e-11

 Reference value :  6.67839e-08
 Reference value :  1.38860e-07
 Reference value :  2.11344e-07
 Reference value :  2.83990e-07
No. of Data Rows : 68030

  Measurements for Transient Analysis

tplh                =  5.36035e-09 targ=  3.17561e-08 trig=  2.63957e-08
tphl                =  2.89985e-09 targ=  1.04087e-07 trig=  1.01187e-07
i_vdd_avg           =  -9.11014e-07 from=  1.00000e-08 to=  3.30000e-07
power_avg_uw        =  1.68784e+00


Total analysis time (seconds) = 1.36284

Total elapsed time (seconds) = 1.420 

Total DRAM available = 16384.000 MB.
DRAM currently available =  100.250 MB.
Maximum ngspice program size =   13.469 MB.
Current ngspice program size =   13.344 MB.

