
Note: No compatibility mode selected!


Circuit: GF180MCU library cell nand3_4 A1_to_ZN__A2=1,A3=1

Doing analysis at TEMP = -20.447944 and TNOM = 27.000000

Using SPARSE 1.3 as Direct Linear Solver

Initial Transient Solution
--------------------------

Node                                   Voltage
----                                   -------
vdd                                    1.96738
a1                                           0
a2                                     1.96738
a3                                     1.96738
xu1.net_1_3                        7.25982e-11
xu1.net_0                          1.45196e-10
xu1.net_1_2                        7.25981e-11
xu1.net_1_1                        7.25982e-11
xu1.net_1_0                        7.25981e-11
xu1.net_0_0                        1.45196e-10
zn                                     1.96738
vfix_a3#branch                               0
vfix_a2#branch                               0
vin#branch                                   0
vdd#branch                        -7.99588e-12

 Reference value :  2.18864e-08
 Reference value :  5.20467e-08
 Reference value :  8.17167e-08
 Reference value :  1.11011e-07
 Reference value :  1.39646e-07
 Reference value :  1.71576e-07
 Reference value :  2.03187e-07
 Reference value :  2.32267e-07
 Reference value :  2.61866e-07
 Reference value :  2.91311e-07
 Reference value :  3.20451e-07
No. of Data Rows : 68032

  Measurements for Transient Analysis

tphl                =  1.08723e-09 targ=  2.66693e-08 trig=  2.55821e-08
tplh                =  1.50026e-09 targ=  1.00247e-07 trig=  9.87462e-08
i_vdd_avg           =  -1.56849e-06 from=  1.00000e-08 to=  3.30001e-07
power_avg_uw        =  3.08583e+00


Total analysis time (seconds) = 3.95096

Total elapsed time (seconds) = 4.039 

Total DRAM available = 16384.000 MB.
DRAM currently available =   73.812 MB.
Maximum ngspice program size =   17.953 MB.
Current ngspice program size =   17.953 MB.

