
Note: No compatibility mode selected!


Circuit: GF180MCU library cell nand3_4 A1_to_ZN__A2=1,A3=1

Doing analysis at TEMP = 19.780087 and TNOM = 27.000000

Using SPARSE 1.3 as Direct Linear Solver

Initial Transient Solution
--------------------------

Node                                   Voltage
----                                   -------
vdd                                    1.93699
a1                                           0
a2                                     1.93699
a3                                     1.93699
xu1.net_1_3                        1.14412e-10
xu1.net_0                          2.28825e-10
xu1.net_1_2                        1.14412e-10
xu1.net_1_1                        1.14412e-10
xu1.net_1_0                        1.14412e-10
xu1.net_0_0                        2.28825e-10
zn                                     1.93699
vfix_a3#branch                               0
vfix_a2#branch                               0
vin#branch                                   0
vdd#branch                        -7.87832e-12

 Reference value :  2.74425e-08
 Reference value :  5.54641e-08
 Reference value :  8.30691e-08
 Reference value :  1.12981e-07
 Reference value :  1.43886e-07
 Reference value :  1.73521e-07
 Reference value :  2.02579e-07
 Reference value :  2.32319e-07
 Reference value :  2.62944e-07
 Reference value :  2.92881e-07
 Reference value :  3.23621e-07
No. of Data Rows : 68030

  Measurements for Transient Analysis

tphl                =  1.04526e-09 targ=  2.76661e-08 trig=  2.66208e-08
tplh                =  1.74823e-09 targ=  1.03611e-07 trig=  1.01862e-07
i_vdd_avg           =  -6.21137e-07 from=  1.00000e-08 to=  3.30001e-07
power_avg_uw        =  1.20314e+00


Total analysis time (seconds) = 3.68901

Total elapsed time (seconds) = 3.760 

Total DRAM available = 16384.000 MB.
DRAM currently available =   87.234 MB.
Maximum ngspice program size =   14.156 MB.
Current ngspice program size =   14.156 MB.

