
Note: No compatibility mode selected!


Circuit: GF180MCU library cell inv_1 I_to_ZN

Doing analysis at TEMP = 6.779847 and TNOM = 27.000000

Using SPARSE 1.3 as Direct Linear Solver

Initial Transient Solution
--------------------------

Node                                   Voltage
----                                   -------
vdd                                    1.89575
i                                            0
zn                                     1.89575
vin#branch                                   0
vdd#branch                        -2.15961e-12

 Reference value :  2.26554e-07
No. of Data Rows : 68030

  Measurements for Transient Analysis

tphl                =  6.43812e-10 targ=  2.79472e-08 trig=  2.73034e-08
tplh                =  1.87444e-09 targ=  1.05785e-07 trig=  1.03910e-07
i_vdd_avg           =  -3.25179e-07 from=  1.00000e-08 to=  3.30001e-07
power_avg_uw        =  6.16459e-01


Total analysis time (seconds) = 0.371249

Total elapsed time (seconds) = 0.453 

Total DRAM available = 16384.000 MB.
DRAM currently available =   74.906 MB.
Maximum ngspice program size =   17.812 MB.
Current ngspice program size =   17.812 MB.

