
Note: No compatibility mode selected!


Circuit: GF180MCU library cell nand2_4 A1_to_ZN__A2=1

Doing analysis at TEMP = 38.792729 and TNOM = 27.000000

Using SPARSE 1.3 as Direct Linear Solver

Initial Transient Solution
--------------------------

Node                                   Voltage
----                                   -------
vdd                                    1.82798
a1                                           0
a2                                     1.82798
xu1.net_0_0                        3.51062e-11
zn                                     1.82798
xu1.net_0_1                        3.51062e-11
xu1.net_0_2                        3.51062e-11
xu1.net_0_3                        3.51062e-11
vfix_a2#branch                               0
vin#branch                                   0
vdd#branch                        -7.36934e-12

 Reference value :  3.31110e-08
 Reference value :  8.55810e-08
 Reference value :  1.39625e-07
 Reference value :  1.89683e-07
 Reference value :  2.41351e-07
 Reference value :  2.92490e-07
No. of Data Rows : 68034

  Measurements for Transient Analysis

tphl                =  2.68060e-09 targ=  2.97399e-08 trig=  2.70593e-08
tplh                =  3.71036e-09 targ=  1.06888e-07 trig=  1.03178e-07
i_vdd_avg           =  -1.35406e-06 from=  1.00000e-08 to=  3.30005e-07
power_avg_uw        =  2.47520e+00


Total analysis time (seconds) = 2.11947

Total elapsed time (seconds) = 2.189 

Total DRAM available = 16384.000 MB.
DRAM currently available =  132.031 MB.
Maximum ngspice program size =   15.781 MB.
Current ngspice program size =   15.781 MB.

