
Note: No compatibility mode selected!


Circuit: GF180MCU library cell oai21_1 A1_to_ZN__A2=0,B=1

Doing analysis at TEMP = 27.342277 and TNOM = 27.000000

Using SPARSE 1.3 as Direct Linear Solver

Initial Transient Solution
--------------------------

Node                                   Voltage
----                                   -------
vdd                                    1.84637
a1                                           0
a2                                           0
b                                      1.84637
zn                                     1.84637
xu1.net_0                          4.50538e-10
xu1.net_1                              1.84637
vfix_b#branch                                0
vfix_a2#branch                               0
vin#branch                                   0
vdd#branch                         -3.7946e-12

 Reference value :  1.01488e-07
 Reference value :  2.14813e-07
 Reference value :  3.09648e-07
No. of Data Rows : 68032

  Measurements for Transient Analysis

tphl                =  5.62263e-09 targ=  3.33079e-08 trig=  2.76852e-08
tplh                =  1.29233e-08 targ=  1.17979e-07 trig=  1.05056e-07
i_vdd_avg           =  -1.94057e-06 from=  1.00000e-08 to=  3.30003e-07
power_avg_uw        =  3.58301e+00


Total analysis time (seconds) = 1.03088

Total elapsed time (seconds) = 1.092 

Total DRAM available = 16384.000 MB.
DRAM currently available =  146.828 MB.
Maximum ngspice program size =   13.062 MB.
Current ngspice program size =   13.047 MB.

