
Note: No compatibility mode selected!


Circuit: GF180MCU library cell aoi21_4 A1_to_ZN__A2=1,B=0

Doing analysis at TEMP = 73.244764 and TNOM = 27.000000

Using SPARSE 1.3 as Direct Linear Solver

Initial Transient Solution
--------------------------

Node                                   Voltage
----                                   -------
vdd                                    1.65075
a1                                           0
a2                                     1.65075
b                                            0
xu1.net_0_0                        1.01879e-07
zn                                     1.65075
xu1.net_0_1                        1.01879e-07
xu1.net_0_2                        1.01879e-07
xu1.net_0_3                        1.01879e-07
xu1.net_1                              1.65075
vfix_b#branch                                0
vfix_a2#branch                               0
vin#branch                                   0
vdd#branch                        -1.72945e-10

 Reference value :  2.88728e-08
 Reference value :  6.48878e-08
 Reference value :  9.49278e-08
 Reference value :  1.25108e-07
 Reference value :  1.53523e-07
 Reference value :  1.83303e-07
 Reference value :  2.13613e-07
 Reference value :  2.44128e-07
 Reference value :  2.74693e-07
 Reference value :  3.05943e-07
 Reference value :  3.37933e-07
No. of Data Rows : 68032

  Measurements for Transient Analysis

tphl                =  4.32018e-10 targ=  2.54572e-08 trig=  2.50251e-08
tplh                =  9.60357e-10 targ=  9.80358e-08 trig=  9.70754e-08
i_vdd_avg           =  -3.63997e-07 from=  1.00000e-08 to=  3.30003e-07
power_avg_uw        =  6.00868e-01


Total analysis time (seconds) = 3.46881

Total elapsed time (seconds) = 3.535 

Total DRAM available = 16384.000 MB.
DRAM currently available =  125.328 MB.
Maximum ngspice program size =   13.172 MB.
Current ngspice program size =   13.172 MB.

