
Note: No compatibility mode selected!


Circuit: GF180MCU library cell oai21_1 A1_to_ZN__A2=0,B=1

Doing analysis at TEMP = 66.682626 and TNOM = 27.000000

Using SPARSE 1.3 as Direct Linear Solver

Initial Transient Solution
--------------------------

Node                                   Voltage
----                                   -------
vdd                                    1.88811
a1                                           0
a2                                           0
b                                      1.88811
zn                                     1.88811
xu1.net_0                          6.46353e-10
xu1.net_1                              1.88811
vfix_b#branch                                0
vfix_a2#branch                               0
vin#branch                                   0
vdd#branch                        -3.87404e-12

 Reference value :  7.25905e-08
 Reference value :  1.69429e-07
 Reference value :  2.76139e-07
No. of Data Rows : 68034

  Measurements for Transient Analysis

tphl                =  5.93528e-09 targ=  3.28018e-08 trig=  2.68665e-08
tplh                =  1.44546e-08 targ=  1.17054e-07 trig=  1.02600e-07
i_vdd_avg           =  -1.40797e-06 from=  1.00000e-08 to=  3.30004e-07
power_avg_uw        =  2.65839e+00


Total analysis time (seconds) = 1.09959

Total elapsed time (seconds) = 1.170 

Total DRAM available = 16384.000 MB.
DRAM currently available =  132.609 MB.
Maximum ngspice program size =   16.578 MB.
Current ngspice program size =   16.578 MB.

