
Note: No compatibility mode selected!


Circuit: GF180MCU library cell nand3_1 A1_to_ZN__A2=1,A3=1

Doing analysis at TEMP = -10.743335 and TNOM = 27.000000

Using SPARSE 1.3 as Direct Linear Solver

Initial Transient Solution
--------------------------

Node                                   Voltage
----                                   -------
vdd                                     1.6295
a1                                           0
a2                                      1.6295
a3                                      1.6295
xu1.net_1                          2.03343e-10
xu1.net_0                          4.06686e-10
zn                                      1.6295
vfix_a3#branch                               0
vfix_a2#branch                               0
vin#branch                                   0
vdd#branch                        -1.68656e-12

 Reference value :  7.01558e-08
 Reference value :  1.68404e-07
 Reference value :  2.70846e-07
No. of Data Rows : 68034

  Measurements for Transient Analysis

tphl                =  5.99273e-09 targ=  3.56969e-08 trig=  2.97042e-08
tplh                =  7.69500e-09 targ=  1.18807e-07 trig=  1.11112e-07
i_vdd_avg           =  -1.46792e-06 from=  1.00000e-08 to=  3.30004e-07
power_avg_uw        =  2.39197e+00


Total analysis time (seconds) = 1.08758

Total elapsed time (seconds) = 1.154 

Total DRAM available = 16384.000 MB.
DRAM currently available =  142.344 MB.
Maximum ngspice program size =   14.734 MB.
Current ngspice program size =   14.734 MB.

