
Note: No compatibility mode selected!


Circuit: GF180MCU library cell nand2_4 A1_to_ZN__A2=1

Doing analysis at TEMP = 91.273558 and TNOM = 27.000000

Using SPARSE 1.3 as Direct Linear Solver

Initial Transient Solution
--------------------------

Node                                   Voltage
----                                   -------
vdd                                    1.89504
a1                                           0
a2                                     1.89504
xu1.net_0_0                        1.97438e-08
zn                                     1.89504
xu1.net_0_1                        1.97438e-08
xu1.net_0_2                        1.97438e-08
xu1.net_0_3                        1.97438e-08
vfix_a2#branch                               0
vin#branch                                   0
vdd#branch                        -2.01304e-11

 Reference value :  3.06575e-08
 Reference value :  7.83934e-08
 Reference value :  1.26724e-07
 Reference value :  1.79404e-07
 Reference value :  2.28023e-07
 Reference value :  2.75334e-07
 Reference value :  3.26634e-07
No. of Data Rows : 68032

  Measurements for Transient Analysis

tphl                =  7.16562e-11 targ=  2.81296e-08 trig=  2.80580e-08
tplh                =  1.09459e-09 targ=  1.07268e-07 trig=  1.06174e-07
i_vdd_avg           =  -2.55467e-07 from=  1.00000e-08 to=  3.30004e-07
power_avg_uw        =  4.84120e-01


Total analysis time (seconds) = 2.3691

Total elapsed time (seconds) = 2.441 

Total DRAM available = 16384.000 MB.
DRAM currently available =   94.203 MB.
Maximum ngspice program size =   17.609 MB.
Current ngspice program size =   17.609 MB.

