
Note: No compatibility mode selected!


Circuit: GF180MCU library cell inv_4 I_to_ZN

Doing analysis at TEMP = -17.177767 and TNOM = 27.000000

Using SPARSE 1.3 as Direct Linear Solver

Initial Transient Solution
--------------------------

Node                                   Voltage
----                                   -------
vdd                                    1.74188
i                                            0
zn                                     1.74188
vin#branch                                   0
vdd#branch                        -7.00965e-12

 Reference value :  6.53058e-08
 Reference value :  1.57544e-07
 Reference value :  2.57336e-07
No. of Data Rows : 68034

  Measurements for Transient Analysis

tphl                =  1.94605e-09 targ=  2.95627e-08 trig=  2.76166e-08
tplh                =  3.47903e-09 targ=  1.08329e-07 trig=  1.04850e-07
i_vdd_avg           =  -1.54961e-06 from=  1.00000e-08 to=  3.30004e-07
power_avg_uw        =  2.69924e+00


Total analysis time (seconds) = 1.20644

Total elapsed time (seconds) = 1.290 

Total DRAM available = 16384.000 MB.
DRAM currently available =  126.062 MB.
Maximum ngspice program size =   18.344 MB.
Current ngspice program size =   18.344 MB.

