
Note: No compatibility mode selected!


Circuit: GF180MCU library cell xor2_4 A1_to_Z__A2=0

Doing analysis at TEMP = -32.556305 and TNOM = 27.000000

Using SPARSE 1.3 as Direct Linear Solver

Initial Transient Solution
--------------------------

Node                                   Voltage
----                                   -------
vdd                                    1.92244
a1                                           0
a2                                           0
xu1.net_2                          0.000325697
xu1.i                                  1.92244
xu1.net_0                          7.99125e-13
xu1.z_neg                              1.92244
z                                  8.78314e-09
xu1.net_1                              1.92244
vfix_a2#branch                               0
vin#branch                                   0
vdd#branch                        -1.39159e-11

 Reference value :  4.04807e-08
 Reference value :  8.74857e-08
 Reference value :  1.29194e-07
 Reference value :  1.69944e-07
 Reference value :  2.12006e-07
 Reference value :  2.53281e-07
 Reference value :  2.92304e-07
 Reference value :  3.33214e-07
No. of Data Rows : 68034

  Measurements for Transient Analysis

tplh                =  2.18075e-09 targ=  2.90849e-08 trig=  2.69041e-08
tphl                =  3.07713e-09 targ=  1.05789e-07 trig=  1.02712e-07
i_vdd_avg           =  -1.77948e-06 from=  1.00000e-08 to=  3.30004e-07
power_avg_uw        =  3.42094e+00


Total analysis time (seconds) = 2.5944

Total elapsed time (seconds) = 2.658 

Total DRAM available = 16384.000 MB.
DRAM currently available =  102.312 MB.
Maximum ngspice program size =   13.469 MB.
Current ngspice program size =   13.047 MB.

