
Note: No compatibility mode selected!


Circuit: GF180MCU library cell nand3_4 A1_to_ZN__A2=1,A3=1

Doing analysis at TEMP = 6.248431 and TNOM = 27.000000

Using SPARSE 1.3 as Direct Linear Solver

Initial Transient Solution
--------------------------

Node                                   Voltage
----                                   -------
vdd                                    1.69101
a1                                           0
a2                                     1.69101
a3                                     1.69101
xu1.net_1_3                        9.51074e-10
xu1.net_0                          1.90215e-09
xu1.net_1_2                        9.51074e-10
xu1.net_1_1                        9.51074e-10
xu1.net_1_0                        9.51074e-10
xu1.net_0_0                        1.90215e-09
zn                                     1.69101
vfix_a3#branch                               0
vfix_a2#branch                               0
vin#branch                                   0
vdd#branch                        -7.68104e-12

 Reference value :  2.64625e-08
 Reference value :  5.76936e-08
 Reference value :  8.58186e-08
 Reference value :  1.16065e-07
 Reference value :  1.45620e-07
 Reference value :  1.77360e-07
 Reference value :  2.08259e-07
 Reference value :  2.39414e-07
 Reference value :  2.69525e-07
 Reference value :  3.00625e-07
 Reference value :  3.28595e-07
No. of Data Rows : 68032

  Measurements for Transient Analysis

tphl                =  1.72968e-09 targ=  2.74502e-08 trig=  2.57206e-08
tplh                =  2.20402e-09 targ=  1.01366e-07 trig=  9.91617e-08
i_vdd_avg           =  -1.80929e-06 from=  1.00000e-08 to=  3.30005e-07
power_avg_uw        =  3.05953e+00


Total analysis time (seconds) = 3.65731

Total elapsed time (seconds) = 3.721 

Total DRAM available = 16384.000 MB.
DRAM currently available =   96.062 MB.
Maximum ngspice program size =   15.312 MB.
Current ngspice program size =   15.312 MB.

