
Note: No compatibility mode selected!


Circuit: GF180MCU library cell nand2_4 A1_to_ZN__A2=1

Doing analysis at TEMP = -2.421087 and TNOM = 27.000000

Using SPARSE 1.3 as Direct Linear Solver

Initial Transient Solution
--------------------------

Node                                   Voltage
----                                   -------
vdd                                    1.68002
a1                                           0
a2                                     1.68002
xu1.net_0_0                        5.99879e-13
zn                                     1.68002
xu1.net_0_1                        5.99879e-13
xu1.net_0_2                        5.99879e-13
xu1.net_0_3                        5.99879e-13
vfix_a2#branch                               0
vin#branch                                   0
vdd#branch                        -6.76037e-12

 Reference value :  3.53684e-08
 Reference value :  8.27184e-08
 Reference value :  1.34199e-07
 Reference value :  1.85733e-07
 Reference value :  2.37678e-07
 Reference value :  2.86794e-07
 Reference value :  3.36839e-07
No. of Data Rows : 68032

  Measurements for Transient Analysis

tphl                =  1.54246e-09 targ=  2.88879e-08 trig=  2.73454e-08
tplh                =  2.54861e-09 targ=  1.06585e-07 trig=  1.04036e-07
i_vdd_avg           =  -2.22078e-07 from=  1.00000e-08 to=  3.30004e-07
power_avg_uw        =  3.73096e-01


Total analysis time (seconds) = 2.34927

Total elapsed time (seconds) = 2.412 

Total DRAM available = 16384.000 MB.
DRAM currently available =  111.484 MB.
Maximum ngspice program size =   16.328 MB.
Current ngspice program size =   16.328 MB.

