
Note: No compatibility mode selected!


Circuit: GF180MCU library cell nor2_1 A1_to_ZN__A2=0

Doing analysis at TEMP = -0.913098 and TNOM = 27.000000

Using SPARSE 1.3 as Direct Linear Solver

Initial Transient Solution
--------------------------

Node                                   Voltage
----                                   -------
vdd                                    1.71112
a1                                           0
a2                                           0
zn                                     1.71112
xu1.net_0                              1.71112
vfix_a2#branch                               0
vin#branch                                   0
vdd#branch                        -3.44916e-12

 Reference value :  1.17894e-07
 Reference value :  2.77474e-07
No. of Data Rows : 68034

  Measurements for Transient Analysis

tphl                =  4.23282e-10 targ=  2.79149e-08 trig=  2.74917e-08
tplh                =  1.58470e-09 targ=  1.06060e-07 trig=  1.04475e-07
i_vdd_avg           =  -3.14276e-08 from=  1.00000e-08 to=  3.30004e-07
power_avg_uw        =  5.37765e-02


Total analysis time (seconds) = 0.696937

Total elapsed time (seconds) = 0.774 

Total DRAM available = 16384.000 MB.
DRAM currently available =   93.203 MB.
Maximum ngspice program size =   17.031 MB.
Current ngspice program size =   17.031 MB.

