
Note: No compatibility mode selected!


Circuit: GF180MCU library cell nor2_1 A1_to_ZN__A2=0

Doing analysis at TEMP = 109.376610 and TNOM = 27.000000

Using SPARSE 1.3 as Direct Linear Solver

Initial Transient Solution
--------------------------

Node                                   Voltage
----                                   -------
vdd                                    1.88994
a1                                           0
a2                                           0
zn                                     1.88993
xu1.net_0                              1.88993
vfix_a2#branch                               0
vin#branch                                   0
vdd#branch                        -2.45112e-10

 Reference value :  1.28026e-07
No. of Data Rows : 68032

  Measurements for Transient Analysis

tphl                =  3.88556e-09 targ=  3.33627e-08 trig=  2.94771e-08
tplh                =  8.74825e-09 targ=  1.19180e-07 trig=  1.10431e-07
i_vdd_avg           =  -1.72063e-06 from=  1.00000e-08 to=  3.30001e-07
power_avg_uw        =  3.25189e+00


Total analysis time (seconds) = 0.448573

Total elapsed time (seconds) = 0.517 

Total DRAM available = 16384.000 MB.
DRAM currently available =  102.938 MB.
Maximum ngspice program size =   16.203 MB.
Current ngspice program size =   16.203 MB.

