
Note: No compatibility mode selected!


Circuit: GF180MCU library cell oai21_4 A1_to_ZN__A2=0,B=1

Doing analysis at TEMP = 69.640880 and TNOM = 27.000000

Using SPARSE 1.3 as Direct Linear Solver

Initial Transient Solution
--------------------------

Node                                   Voltage
----                                   -------
vdd                                    1.76593
a1                                           0
a2                                           0
b                                      1.76593
zn                                     1.76593
xu1.net_0                          1.07334e-08
xu1.net_1_0                            1.76593
xu1.net_1_1                            1.76593
xu1.net_1_2                            1.76593
xu1.net_1_3                            1.76593
vfix_b#branch                                0
vfix_a2#branch                               0
vin#branch                                   0
vdd#branch                        -2.07826e-11

 Reference value :  2.11364e-08
 Reference value :  5.02446e-08
 Reference value :  8.14046e-08
 Reference value :  1.09602e-07
 Reference value :  1.39327e-07
 Reference value :  1.71482e-07
 Reference value :  2.01540e-07
 Reference value :  2.33565e-07
 Reference value :  2.65370e-07
 Reference value :  2.95972e-07
 Reference value :  3.27202e-07
No. of Data Rows : 68030

  Measurements for Transient Analysis

tphl                =  2.56320e-09 targ=  2.95643e-08 trig=  2.70011e-08
tplh                =  5.51790e-09 targ=  1.08521e-07 trig=  1.03003e-07
i_vdd_avg           =  -2.07580e-06 from=  1.00000e-08 to=  3.30002e-07
power_avg_uw        =  3.66573e+00


Total analysis time (seconds) = 3.68217

Total elapsed time (seconds) = 3.752 

Total DRAM available = 16384.000 MB.
DRAM currently available =  118.266 MB.
Maximum ngspice program size =   17.359 MB.
Current ngspice program size =   17.359 MB.

