
Note: No compatibility mode selected!


Circuit: GF180MCU library cell mux2_1 I0_to_Z__I1=0,S=0

Doing analysis at TEMP = 108.772590 and TNOM = 27.000000

Using SPARSE 1.3 as Direct Linear Solver

Initial Transient Solution
--------------------------

Node                                   Voltage
----                                   -------
vdd                                    1.83216
i0                                           0
i1                                           0
s                                            0
xu1.int04                              1.83216
z                                  1.44025e-08
xu1.net_1                            0.0496724
xu1.net_3                              1.37413
xu1.sel1_n                             1.83216
xu1.net_0                              1.83216
xu1.net_2                              1.83216
vfix_s#branch                                0
vfix_i1#branch                               0
vin#branch                                   0
vdd#branch                        -6.28841e-11

 Reference value :  3.96412e-08
 Reference value :  9.48062e-08
 Reference value :  1.52515e-07
 Reference value :  2.07326e-07
 Reference value :  2.58391e-07
 Reference value :  3.18730e-07
No. of Data Rows : 68034

  Measurements for Transient Analysis

tplh                =  4.27173e-09 targ=  3.09036e-08 trig=  2.66318e-08
tphl                =  3.70573e-09 targ=  1.05601e-07 trig=  1.01896e-07
i_vdd_avg           =  -1.20771e-06 from=  1.00000e-08 to=  3.30005e-07
power_avg_uw        =  2.21271e+00


Total analysis time (seconds) = 1.97423

Total elapsed time (seconds) = 2.044 

Total DRAM available = 16384.000 MB.
DRAM currently available =  124.688 MB.
Maximum ngspice program size =   16.156 MB.
Current ngspice program size =   16.156 MB.

