
Note: No compatibility mode selected!


Circuit: GF180MCU library cell mux2_4 I0_to_Z__I1=0,S=0

Doing analysis at TEMP = 113.936370 and TNOM = 27.000000

Using SPARSE 1.3 as Direct Linear Solver

Initial Transient Solution
--------------------------

Node                                   Voltage
----                                   -------
vdd                                    1.83363
i0                                           0
i1                                           0
s                                            0
xu1.int04                              1.83363
z                                  2.79058e-08
xu1.net_1                            0.0528391
xu1.net_3                              1.36856
xu1.sel1_n                             1.83363
xu1.net_0                              1.83363
xu1.net_2                              1.83363
vfix_s#branch                                0
vfix_i1#branch                               0
vin#branch                                   0
vdd#branch                        -3.26625e-10

 Reference value :  3.67888e-08
 Reference value :  7.99288e-08
 Reference value :  1.20835e-07
 Reference value :  1.62175e-07
 Reference value :  1.97659e-07
 Reference value :  2.34574e-07
 Reference value :  2.74040e-07
 Reference value :  3.13150e-07
No. of Data Rows : 68030

  Measurements for Transient Analysis

tplh                =  9.91623e-10 targ=  2.61573e-08 trig=  2.51656e-08
tphl                =  1.50619e-09 targ=  9.90031e-08 trig=  9.74969e-08
i_vdd_avg           =  -7.23991e-07 from=  1.00000e-08 to=  3.30000e-07
power_avg_uw        =  1.32753e+00


Total analysis time (seconds) = 2.6715

Total elapsed time (seconds) = 2.732 

Total DRAM available = 16384.000 MB.
DRAM currently available =  104.078 MB.
Maximum ngspice program size =   12.797 MB.
Current ngspice program size =   12.750 MB.

