
Note: No compatibility mode selected!


Circuit: GF180MCU library cell mux2_1 I0_to_Z__I1=0,S=0

Doing analysis at TEMP = 95.101664 and TNOM = 27.000000

Using SPARSE 1.3 as Direct Linear Solver

Initial Transient Solution
--------------------------

Node                                   Voltage
----                                   -------
vdd                                     1.8836
i0                                           0
i1                                           0
s                                            0
xu1.int04                               1.8836
z                                  1.77163e-08
xu1.net_1                            0.0375353
xu1.net_3                              1.36349
xu1.sel1_n                              1.8836
xu1.net_0                               1.8836
xu1.net_2                               1.8836
vfix_s#branch                                0
vfix_i1#branch                               0
vin#branch                                   0
vdd#branch                        -1.33472e-11

 Reference value :  3.78781e-08
 Reference value :  9.15081e-08
 Reference value :  1.46159e-07
 Reference value :  1.98768e-07
 Reference value :  2.53588e-07
 Reference value :  3.14074e-07
No. of Data Rows : 68032

  Measurements for Transient Analysis

tplh                =  9.77702e-09 targ=  3.52873e-08 trig=  2.55103e-08
tphl                =  6.07039e-09 targ=  1.04601e-07 trig=  9.85310e-08
i_vdd_avg           =  -1.99609e-06 from=  1.00000e-08 to=  3.30004e-07
power_avg_uw        =  3.75984e+00


Total analysis time (seconds) = 1.96779

Total elapsed time (seconds) = 2.036 

Total DRAM available = 16384.000 MB.
DRAM currently available =   92.562 MB.
Maximum ngspice program size =   16.516 MB.
Current ngspice program size =   16.516 MB.

