
Note: No compatibility mode selected!


Circuit: GF180MCU library cell aoi21_1 A1_to_ZN__A2=1,B=0

Doing analysis at TEMP = 1.805562 and TNOM = 27.000000

Using SPARSE 1.3 as Direct Linear Solver

Initial Transient Solution
--------------------------

Node                                   Voltage
----                                   -------
vdd                                    1.90892
a1                                           0
a2                                     1.90892
b                                            0
xu1.net_0                          2.09238e-11
zn                                     1.90892
xu1.net_1                              1.90892
vfix_b#branch                                0
vfix_a2#branch                               0
vin#branch                                   0
vdd#branch                        -3.84807e-12

 Reference value :  7.90663e-08
 Reference value :  1.78800e-07
 Reference value :  2.78805e-07
No. of Data Rows : 68032

  Measurements for Transient Analysis

tphl                =  1.56722e-09 targ=  2.58216e-08 trig=  2.42544e-08
tplh                =  4.05126e-09 targ=  9.88144e-08 trig=  9.47632e-08
i_vdd_avg           =  -7.96573e-07 from=  1.00000e-08 to=  3.30000e-07
power_avg_uw        =  1.52059e+00


Total analysis time (seconds) = 1.06386

Total elapsed time (seconds) = 1.139 

Total DRAM available = 16384.000 MB.
DRAM currently available =  113.406 MB.
Maximum ngspice program size =   18.188 MB.
Current ngspice program size =   18.188 MB.

