
Note: No compatibility mode selected!


Circuit: GF180MCU library cell nand2_4 A1_to_ZN__A2=1

Doing analysis at TEMP = 48.932691 and TNOM = 27.000000

Using SPARSE 1.3 as Direct Linear Solver

Initial Transient Solution
--------------------------

Node                                   Voltage
----                                   -------
vdd                                    1.79132
a1                                           0
a2                                     1.79132
xu1.net_0_0                        2.28276e-08
zn                                     1.79132
xu1.net_0_1                        2.28276e-08
xu1.net_0_2                        2.28276e-08
xu1.net_0_3                        2.28276e-08
vfix_a2#branch                               0
vin#branch                                   0
vdd#branch                        -2.72366e-11

 Reference value :  3.09591e-08
 Reference value :  7.76741e-08
 Reference value :  1.28281e-07
 Reference value :  1.76376e-07
 Reference value :  2.20499e-07
 Reference value :  2.73131e-07
 Reference value :  3.24851e-07
No. of Data Rows : 68030

  Measurements for Transient Analysis

tphl                =  5.36101e-10 targ=  2.46444e-08 trig=  2.41083e-08
tplh                =  7.30718e-10 targ=  9.50556e-08 trig=  9.43249e-08
i_vdd_avg           =  -1.23290e-06 from=  1.00000e-08 to=  3.30001e-07
power_avg_uw        =  2.20851e+00


Total analysis time (seconds) = 2.35914

Total elapsed time (seconds) = 2.427 

Total DRAM available = 16384.000 MB.
DRAM currently available =   94.203 MB.
Maximum ngspice program size =   16.297 MB.
Current ngspice program size =   16.297 MB.

