
Note: No compatibility mode selected!


Circuit: GF180MCU library cell aoi21_1 A1_to_ZN__A2=1,B=0

Doing analysis at TEMP = 65.039192 and TNOM = 27.000000

Using SPARSE 1.3 as Direct Linear Solver

Initial Transient Solution
--------------------------

Node                                   Voltage
----                                   -------
vdd                                    1.96957
a1                                           0
a2                                     1.96957
b                                            0
xu1.net_0                           2.7809e-10
zn                                     1.96957
xu1.net_1                              1.96957
vfix_b#branch                                0
vfix_a2#branch                               0
vin#branch                                   0
vdd#branch                        -4.04037e-12

 Reference value :  7.01777e-08
 Reference value :  1.78588e-07
 Reference value :  2.90103e-07
No. of Data Rows : 68032

  Measurements for Transient Analysis

tphl                =  2.47168e-09 targ=  2.78693e-08 trig=  2.53976e-08
tplh                =  5.75131e-09 targ=  1.03944e-07 trig=  9.81928e-08
i_vdd_avg           =  -6.29393e-07 from=  1.00000e-08 to=  3.30003e-07
power_avg_uw        =  1.23964e+00


Total analysis time (seconds) = 1.03152

Total elapsed time (seconds) = 1.117 

Total DRAM available = 16384.000 MB.
DRAM currently available =   98.141 MB.
Maximum ngspice program size =   17.750 MB.
Current ngspice program size =   17.750 MB.

