
Note: No compatibility mode selected!


Circuit: GF180MCU library cell aoi21_4 A1_to_ZN__A2=1,B=0

Doing analysis at TEMP = 105.140860 and TNOM = 27.000000

Using SPARSE 1.3 as Direct Linear Solver

Initial Transient Solution
--------------------------

Node                                   Voltage
----                                   -------
vdd                                    1.91694
a1                                           0
a2                                     1.91694
b                                            0
xu1.net_0_0                        4.27231e-08
zn                                     1.91694
xu1.net_0_1                        4.27231e-08
xu1.net_0_2                        4.27231e-08
xu1.net_0_3                        4.27231e-08
xu1.net_1                              1.91694
vfix_b#branch                                0
vfix_a2#branch                               0
vin#branch                                   0
vdd#branch                        -7.18561e-11

 Reference value :  2.86075e-08
 Reference value :  6.54633e-08
 Reference value :  9.59233e-08
 Reference value :  1.28419e-07
 Reference value :  1.54374e-07
 Reference value :  1.83974e-07
 Reference value :  2.14123e-07
 Reference value :  2.47093e-07
 Reference value :  2.78034e-07
 Reference value :  3.09284e-07
 Reference value :  3.39969e-07
No. of Data Rows : 68032

  Measurements for Transient Analysis

tphl                =  2.01698e-09 targ=  2.86049e-08 trig=  2.65879e-08
tplh                =  3.99090e-09 targ=  1.05755e-07 trig=  1.01764e-07
i_vdd_avg           =  -1.98318e-06 from=  1.00000e-08 to=  3.30004e-07
power_avg_uw        =  3.80165e+00


Total analysis time (seconds) = 3.426

Total elapsed time (seconds) = 3.494 

Total DRAM available = 16384.000 MB.
DRAM currently available =  109.344 MB.
Maximum ngspice program size =   13.734 MB.
Current ngspice program size =   13.734 MB.

