
Note: No compatibility mode selected!


Circuit: GF180MCU library cell mux2_1 I0_to_Z__I1=0,S=0

Doing analysis at TEMP = 37.964036 and TNOM = 27.000000

Using SPARSE 1.3 as Direct Linear Solver

Initial Transient Solution
--------------------------

Node                                   Voltage
----                                   -------
vdd                                    1.62527
i0                                           0
i1                                           0
s                                            0
xu1.int04                              1.62527
z                                   1.1534e-08
xu1.net_1                            0.0295373
xu1.net_3                              1.16269
xu1.sel1_n                             1.62527
xu1.net_0                              1.62527
xu1.net_2                              1.62527
vfix_s#branch                                0
vfix_i1#branch                               0
vin#branch                                   0
vdd#branch                        -9.90367e-12

 Reference value :  4.06853e-08
 Reference value :  9.42553e-08
 Reference value :  1.49038e-07
 Reference value :  2.06710e-07
 Reference value :  2.56715e-07
 Reference value :  3.14633e-07
No. of Data Rows : 68034

  Measurements for Transient Analysis

tplh                =  8.49319e-09 targ=  3.45971e-08 trig=  2.61039e-08
tphl                =  5.31938e-09 targ=  1.05631e-07 trig=  1.00312e-07
i_vdd_avg           =  -1.83031e-06 from=  1.00000e-08 to=  3.30003e-07
power_avg_uw        =  2.97475e+00


Total analysis time (seconds) = 1.99987

Total elapsed time (seconds) = 2.066 

Total DRAM available = 16384.000 MB.
DRAM currently available =  124.828 MB.
Maximum ngspice program size =   13.000 MB.
Current ngspice program size =   12.875 MB.

