
Note: No compatibility mode selected!


Circuit: GF180MCU library cell aoi21_4 A1_to_ZN__A2=1,B=0

Doing analysis at TEMP = 113.464770 and TNOM = 27.000000

Using SPARSE 1.3 as Direct Linear Solver

Initial Transient Solution
--------------------------

Node                                   Voltage
----                                   -------
vdd                                    1.83473
a1                                           0
a2                                     1.83473
b                                            0
xu1.net_0_0                        6.74644e-08
zn                                     1.83473
xu1.net_0_1                        6.74644e-08
xu1.net_0_2                        6.74644e-08
xu1.net_0_3                        6.74644e-08
xu1.net_1                              1.83473
vfix_b#branch                                0
vfix_a2#branch                               0
vin#branch                                   0
vdd#branch                         -9.7209e-11

 Reference value :  2.18814e-08
 Reference value :  5.20938e-08
 Reference value :  8.49488e-08
 Reference value :  1.17240e-07
 Reference value :  1.50540e-07
 Reference value :  1.82605e-07
 Reference value :  2.12754e-07
 Reference value :  2.42734e-07
 Reference value :  2.73465e-07
 Reference value :  3.01585e-07
 Reference value :  3.34450e-07
No. of Data Rows : 68030

  Measurements for Transient Analysis

tphl                =  1.04875e-09 targ=  2.63619e-08 trig=  2.53131e-08
tplh                =  2.04998e-09 targ=  9.99894e-08 trig=  9.79394e-08
i_vdd_avg           =  -8.87141e-07 from=  1.00000e-08 to=  3.30000e-07
power_avg_uw        =  1.62766e+00


Total analysis time (seconds) = 3.48137

Total elapsed time (seconds) = 3.550 

Total DRAM available = 16384.000 MB.
DRAM currently available =   83.672 MB.
Maximum ngspice program size =   16.750 MB.
Current ngspice program size =   16.750 MB.

