
Note: No compatibility mode selected!


Circuit: GF180MCU library cell xor2_1 A1_to_Z__A2=0

Doing analysis at TEMP = -16.803495 and TNOM = 27.000000

Using SPARSE 1.3 as Direct Linear Solver

Initial Transient Solution
--------------------------

Node                                   Voltage
----                                   -------
vdd                                    1.79232
a1                                           0
a2                                           0
xu1.i                                  1.79232
z                                  3.27201e-08
xu1.net_0                          6.04703e-11
xu1.net_2                              1.79232
xu1.net_1                              0.82165
vfix_a2#branch                               0
vin#branch                                   0
vdd#branch                        -1.01482e-11

 Reference value :  7.12449e-08
 Reference value :  1.49087e-07
 Reference value :  2.20385e-07
 Reference value :  2.93382e-07
No. of Data Rows : 68030

  Measurements for Transient Analysis

tplh                =  5.01696e-09 targ=  2.97207e-08 trig=  2.47037e-08
tphl                =  2.16196e-09 targ=  9.82731e-08 trig=  9.61111e-08
i_vdd_avg           =  -8.37204e-07 from=  1.00000e-08 to=  3.30002e-07
power_avg_uw        =  1.50054e+00


Total analysis time (seconds) = 1.31809

Total elapsed time (seconds) = 1.381 

Total DRAM available = 16384.000 MB.
DRAM currently available =  128.922 MB.
Maximum ngspice program size =   12.938 MB.
Current ngspice program size =   12.938 MB.

