
Note: No compatibility mode selected!


Circuit: GF180MCU library cell mux2_1 I0_to_Z__I1=0,S=0

Doing analysis at TEMP = 45.728945 and TNOM = 27.000000

Using SPARSE 1.3 as Direct Linear Solver

Initial Transient Solution
--------------------------

Node                                   Voltage
----                                   -------
vdd                                    1.86062
i0                                           0
i1                                           0
s                                            0
xu1.int04                              1.86062
z                                  1.56066e-08
xu1.net_1                             0.012713
xu1.net_3                              1.27656
xu1.sel1_n                             1.86062
xu1.net_0                              1.86062
xu1.net_2                              1.86062
vfix_s#branch                                0
vfix_i1#branch                               0
vin#branch                                   0
vdd#branch                        -1.02849e-11

 Reference value :  4.39720e-08
 Reference value :  1.04462e-07
 Reference value :  1.60192e-07
 Reference value :  2.16487e-07
 Reference value :  2.70247e-07
 Reference value :  3.29302e-07
No. of Data Rows : 68032

  Measurements for Transient Analysis

tplh                =  6.53015e-09 targ=  3.16149e-08 trig=  2.50848e-08
tphl                =  4.49365e-09 targ=  1.01748e-07 trig=  9.72543e-08
i_vdd_avg           =  -1.28463e-06 from=  1.00000e-08 to=  3.30002e-07
power_avg_uw        =  2.39020e+00


Total analysis time (seconds) = 1.89795

Total elapsed time (seconds) = 1.966 

Total DRAM available = 16384.000 MB.
DRAM currently available =   91.812 MB.
Maximum ngspice program size =   15.500 MB.
Current ngspice program size =   15.500 MB.

