
Note: No compatibility mode selected!


Circuit: GF180MCU library cell nand2_4 A1_to_ZN__A2=1

Doing analysis at TEMP = 57.769146 and TNOM = 27.000000

Using SPARSE 1.3 as Direct Linear Solver

Initial Transient Solution
--------------------------

Node                                   Voltage
----                                   -------
vdd                                    1.74701
a1                                           0
a2                                     1.74701
xu1.net_0_0                        1.74307e-10
zn                                     1.74701
xu1.net_0_1                        1.74307e-10
xu1.net_0_2                        1.74307e-10
xu1.net_0_3                        1.74307e-10
vfix_a2#branch                               0
vin#branch                                   0
vdd#branch                        -7.10469e-12

 Reference value :  5.14335e-08
 Reference value :  9.95985e-08
 Reference value :  1.49590e-07
 Reference value :  2.00024e-07
 Reference value :  2.53059e-07
 Reference value :  3.07840e-07
No. of Data Rows : 68032

  Measurements for Transient Analysis

tphl                =  3.90904e-09 targ=  3.23770e-08 trig=  2.84680e-08
tplh                =  5.42565e-09 targ=  1.12830e-07 trig=  1.07404e-07
i_vdd_avg           =  -1.64488e-06 from=  1.00000e-08 to=  3.30005e-07
power_avg_uw        =  2.87363e+00


Total analysis time (seconds) = 1.98081

Total elapsed time (seconds) = 2.035 

Total DRAM available = 16384.000 MB.
DRAM currently available =   97.922 MB.
Maximum ngspice program size =   13.906 MB.
Current ngspice program size =   13.906 MB.

