
Note: No compatibility mode selected!


Circuit: GF180MCU library cell inv_4 I_to_ZN

Doing analysis at TEMP = 19.295248 and TNOM = 27.000000

Using SPARSE 1.3 as Direct Linear Solver

Initial Transient Solution
--------------------------

Node                                   Voltage
----                                   -------
vdd                                    1.88992
i                                            0
zn                                     1.88992
vin#branch                                   0
vdd#branch                        -7.68454e-12

 Reference value :  6.73120e-08
 Reference value :  1.65616e-07
 Reference value :  2.64802e-07
No. of Data Rows : 68032

  Measurements for Transient Analysis

tphl                =  4.23489e-11 targ=  2.86446e-08 trig=  2.86022e-08
tplh                =  1.32341e-09 targ=  1.09130e-07 trig=  1.07807e-07
i_vdd_avg           =  -2.21313e-07 from=  1.00000e-08 to=  3.30001e-07
power_avg_uw        =  4.18265e-01


Total analysis time (seconds) = 1.15676

Total elapsed time (seconds) = 1.214 

Total DRAM available = 16384.000 MB.
DRAM currently available =  151.922 MB.
Maximum ngspice program size =   17.062 MB.
Current ngspice program size =   17.062 MB.

