
Note: No compatibility mode selected!


Circuit: GF180MCU library cell nand2_4 A1_to_ZN__A2=1

Doing analysis at TEMP = 87.886021 and TNOM = 27.000000

Using SPARSE 1.3 as Direct Linear Solver

Initial Transient Solution
--------------------------

Node                                   Voltage
----                                   -------
vdd                                    1.87012
a1                                           0
a2                                     1.87012
xu1.net_0_0                        1.42646e-09
zn                                     1.87012
xu1.net_0_1                        1.42646e-09
xu1.net_0_2                        1.42646e-09
xu1.net_0_3                        1.42646e-09
vfix_a2#branch                               0
vin#branch                                   0
vdd#branch                        -8.16227e-12

 Reference value :  3.31167e-08
 Reference value :  8.37617e-08
 Reference value :  1.36896e-07
 Reference value :  1.88352e-07
 Reference value :  2.38362e-07
 Reference value :  2.87381e-07
 Reference value :  3.35196e-07
No. of Data Rows : 68032

  Measurements for Transient Analysis

tphl                =  1.99312e-09 targ=  2.66227e-08 trig=  2.46296e-08
tplh                =  2.81105e-09 targ=  9.86998e-08 trig=  9.58887e-08
i_vdd_avg           =  -1.95372e-06 from=  1.00000e-08 to=  3.30001e-07
power_avg_uw        =  3.65368e+00


Total analysis time (seconds) = 2.16803

Total elapsed time (seconds) = 2.235 

Total DRAM available = 16384.000 MB.
DRAM currently available =   97.922 MB.
Maximum ngspice program size =   15.906 MB.
Current ngspice program size =   15.906 MB.

