
Note: No compatibility mode selected!


Circuit: GF180MCU library cell nand3_4 A1_to_ZN__A2=1,A3=1

Doing analysis at TEMP = 62.206776 and TNOM = 27.000000

Using SPARSE 1.3 as Direct Linear Solver

Initial Transient Solution
--------------------------

Node                                   Voltage
----                                   -------
vdd                                    1.68148
a1                                           0
a2                                     1.68148
a3                                     1.68148
xu1.net_1_3                        5.32806e-08
xu1.net_0                          1.06561e-07
xu1.net_1_2                        5.32806e-08
xu1.net_1_1                        5.32806e-08
xu1.net_1_0                        5.32806e-08
xu1.net_0_0                        1.06561e-07
zn                                     1.68148
vfix_a3#branch                               0
vfix_a2#branch                               0
vin#branch                                   0
vdd#branch                        -4.88371e-11

 Reference value :  2.24314e-08
 Reference value :  5.27896e-08
 Reference value :  8.07946e-08
 Reference value :  1.12520e-07
 Reference value :  1.40907e-07
 Reference value :  1.70202e-07
 Reference value :  2.01520e-07
 Reference value :  2.31965e-07
 Reference value :  2.62405e-07
 Reference value :  2.93982e-07
 Reference value :  3.25167e-07
No. of Data Rows : 68030

  Measurements for Transient Analysis

tphl                =  1.42084e-09 targ=  3.12044e-08 trig=  2.97836e-08
tplh                =  3.00277e-09 targ=  1.14353e-07 trig=  1.11351e-07
i_vdd_avg           =  -1.04022e-06 from=  1.00000e-08 to=  3.30002e-07
power_avg_uw        =  1.74912e+00


Total analysis time (seconds) = 3.73057

Total elapsed time (seconds) = 3.805 

Total DRAM available = 16384.000 MB.
DRAM currently available =   96.062 MB.
Maximum ngspice program size =   15.812 MB.
Current ngspice program size =   15.812 MB.

