
Note: No compatibility mode selected!


Circuit: GF180MCU library cell nand3_4 A1_to_ZN__A2=1,A3=1

Doing analysis at TEMP = -25.286759 and TNOM = 27.000000

Using SPARSE 1.3 as Direct Linear Solver

Initial Transient Solution
--------------------------

Node                                   Voltage
----                                   -------
vdd                                    1.62954
a1                                           0
a2                                     1.62954
a3                                     1.62954
xu1.net_1_3                         4.5482e-11
xu1.net_0                           9.0964e-11
xu1.net_1_2                         4.5482e-11
xu1.net_1_1                         4.5482e-11
xu1.net_1_0                        4.54819e-11
xu1.net_0_0                         9.0964e-11
zn                                     1.62954
vfix_a3#branch                               0
vfix_a2#branch                               0
vin#branch                                   0
vdd#branch                        -6.60215e-12

 Reference value :  2.84425e-08
 Reference value :  6.31459e-08
 Reference value :  9.32209e-08
 Reference value :  1.24259e-07
 Reference value :  1.54594e-07
 Reference value :  1.85798e-07
 Reference value :  2.16471e-07
 Reference value :  2.49371e-07
 Reference value :  2.79714e-07
 Reference value :  3.11459e-07
 Reference value :  3.39274e-07
No. of Data Rows : 68034

  Measurements for Transient Analysis

tphl                =  1.34987e-09 targ=  2.99916e-08 trig=  2.86417e-08
tplh                =  2.73319e-09 targ=  1.10658e-07 trig=  1.07925e-07
i_vdd_avg           =  -7.38673e-07 from=  1.00000e-08 to=  3.30004e-07
power_avg_uw        =  1.20370e+00


Total analysis time (seconds) = 3.68036

Total elapsed time (seconds) = 3.742 

Total DRAM available = 16384.000 MB.
DRAM currently available =   92.781 MB.
Maximum ngspice program size =   12.703 MB.
Current ngspice program size =   12.578 MB.

