
Note: No compatibility mode selected!


Circuit: GF180MCU library cell inv_4 I_to_ZN

Doing analysis at TEMP = 57.030638 and TNOM = 27.000000

Using SPARSE 1.3 as Direct Linear Solver

Initial Transient Solution
--------------------------

Node                                   Voltage
----                                   -------
vdd                                    1.71952
i                                            0
zn                                     1.71952
vin#branch                                   0
vdd#branch                        -6.98974e-12

 Reference value :  6.99281e-08
 Reference value :  1.63219e-07
 Reference value :  2.64648e-07
No. of Data Rows : 68032

  Measurements for Transient Analysis

tphl                =  3.46551e-09 targ=  3.31808e-08 trig=  2.97153e-08
tplh                =  5.84180e-09 targ=  1.16988e-07 trig=  1.11146e-07
i_vdd_avg           =  -1.39623e-06 from=  1.00000e-08 to=  3.30004e-07
power_avg_uw        =  2.40083e+00


Total analysis time (seconds) = 1.15768

Total elapsed time (seconds) = 1.244 

Total DRAM available = 16384.000 MB.
DRAM currently available =  140.766 MB.
Maximum ngspice program size =   17.281 MB.
Current ngspice program size =   17.281 MB.

