
Note: No compatibility mode selected!


Circuit: GF180MCU library cell nand3_4 A1_to_ZN__A2=1,A3=1

Doing analysis at TEMP = 73.027523 and TNOM = 27.000000

Using SPARSE 1.3 as Direct Linear Solver

Initial Transient Solution
--------------------------

Node                                   Voltage
----                                   -------
vdd                                    1.87123
a1                                           0
a2                                     1.87123
a3                                     1.87123
xu1.net_1_3                        9.74477e-08
xu1.net_0                          1.94895e-07
xu1.net_1_2                        9.74477e-08
xu1.net_1_1                        9.74477e-08
xu1.net_1_0                        9.74477e-08
xu1.net_0_0                        1.94895e-07
zn                                     1.87123
vfix_a3#branch                               0
vfix_a2#branch                               0
vin#branch                                   0
vdd#branch                        -9.18563e-11

 Reference value :  2.46025e-08
 Reference value :  5.53649e-08
 Reference value :  8.48499e-08
 Reference value :  1.12992e-07
 Reference value :  1.42757e-07
 Reference value :  1.72442e-07
 Reference value :  2.03670e-07
 Reference value :  2.34945e-07
 Reference value :  2.65877e-07
 Reference value :  2.98562e-07
 Reference value :  3.29157e-07
No. of Data Rows : 68030

  Measurements for Transient Analysis

tphl                =  1.30453e-09 targ=  2.72232e-08 trig=  2.59187e-08
tplh                =  1.77588e-09 targ=  1.01532e-07 trig=  9.97560e-08
i_vdd_avg           =  -1.48443e-06 from=  1.00000e-08 to=  3.30002e-07
power_avg_uw        =  2.77771e+00


Total analysis time (seconds) = 3.7452

Total elapsed time (seconds) = 3.815 

Total DRAM available = 16384.000 MB.
DRAM currently available =   92.781 MB.
Maximum ngspice program size =   14.969 MB.
Current ngspice program size =   14.969 MB.

