
Note: No compatibility mode selected!


Circuit: GF180MCU library cell aoi21_1 A1_to_ZN__A2=1,B=0

Doing analysis at TEMP = 17.298743 and TNOM = 27.000000

Using SPARSE 1.3 as Direct Linear Solver

Initial Transient Solution
--------------------------

Node                                   Voltage
----                                   -------
vdd                                    1.76986
a1                                           0
a2                                     1.76986
b                                            0
xu1.net_0                          9.53397e-11
zn                                     1.76986
xu1.net_1                              1.76986
vfix_b#branch                                0
vfix_a2#branch                               0
vin#branch                                   0
vdd#branch                        -3.59907e-12

 Reference value :  8.21586e-08
 Reference value :  1.93329e-07
 Reference value :  2.97160e-07
No. of Data Rows : 68032

  Measurements for Transient Analysis

tphl                =  1.28518e-09 targ=  2.54358e-08 trig=  2.41506e-08
tplh                =  3.49060e-09 targ=  9.79423e-08 trig=  9.44517e-08
i_vdd_avg           =  -5.25099e-07 from=  1.00000e-08 to=  3.30005e-07
power_avg_uw        =  9.29353e-01


Total analysis time (seconds) = 0.982992

Total elapsed time (seconds) = 1.044 

Total DRAM available = 16384.000 MB.
DRAM currently available =  140.844 MB.
Maximum ngspice program size =   14.984 MB.
Current ngspice program size =   14.984 MB.

