
Note: No compatibility mode selected!


Circuit: GF180MCU library cell nand2_1 A1_to_ZN__A2=1

Doing analysis at TEMP = 14.727218 and TNOM = 27.000000

Using SPARSE 1.3 as Direct Linear Solver

Initial Transient Solution
--------------------------

Node                                   Voltage
----                                   -------
vdd                                    1.62202
a1                                           0
a2                                     1.62202
xu1.net_0                          1.95868e-09
zn                                     1.62202
vfix_a2#branch                               0
vin#branch                                   0
vdd#branch                        -2.05119e-12

 Reference value :  1.13540e-07
 Reference value :  2.80033e-07
No. of Data Rows : 68034

  Measurements for Transient Analysis

tphl                =  1.96585e-09 targ=  3.10548e-08 trig=  2.90890e-08
tplh                =  3.63594e-09 targ=  1.12903e-07 trig=  1.09267e-07
i_vdd_avg           =  -3.77769e-07 from=  1.00000e-08 to=  3.30003e-07
power_avg_uw        =  6.12751e-01


Total analysis time (seconds) = 0.706085

Total elapsed time (seconds) = 0.786 

Total DRAM available = 16384.000 MB.
DRAM currently available =  108.656 MB.
Maximum ngspice program size =   17.422 MB.
Current ngspice program size =   17.422 MB.

