
Note: No compatibility mode selected!


Circuit: GF180MCU library cell xor2_1 A1_to_Z__A2=0

Doing analysis at TEMP = 111.733180 and TNOM = 27.000000

Using SPARSE 1.3 as Direct Linear Solver

Initial Transient Solution
--------------------------

Node                                   Voltage
----                                   -------
vdd                                    1.81442
a1                                           0
a2                                           0
xu1.i                                  1.81439
z                                  5.28684e-08
xu1.net_0                          2.64029e-08
xu1.net_2                               1.8144
xu1.net_1                             0.516002
vfix_a2#branch                               0
vin#branch                                   0
vdd#branch                        -5.91731e-10

 Reference value :  5.38047e-08
 Reference value :  1.18192e-07
 Reference value :  1.95695e-07
 Reference value :  2.66777e-07
No. of Data Rows : 68030

  Measurements for Transient Analysis

tplh                =  6.19541e-09 targ=  3.29415e-08 trig=  2.67461e-08
tphl                =  3.02909e-09 targ=  1.05267e-07 trig=  1.02238e-07
i_vdd_avg           =  -1.51344e-06 from=  1.00000e-08 to=  3.30002e-07
power_avg_uw        =  2.74602e+00


Total analysis time (seconds) = 1.47397

Total elapsed time (seconds) = 1.529 

Total DRAM available = 16384.000 MB.
DRAM currently available =  130.047 MB.
Maximum ngspice program size =   14.688 MB.
Current ngspice program size =   14.688 MB.

