
Note: No compatibility mode selected!


Circuit: GF180MCU library cell xor2_4 A1_to_Z__A2=0

Doing analysis at TEMP = 64.967484 and TNOM = 27.000000

Using SPARSE 1.3 as Direct Linear Solver

Initial Transient Solution
--------------------------

Node                                   Voltage
----                                   -------
vdd                                    1.81116
a1                                           0
a2                                           0
xu1.net_2                            0.0427952
xu1.i                                  1.81116
xu1.net_0                          7.77977e-09
xu1.z_neg                              1.81116
z                                  1.19805e-08
xu1.net_1                              1.81116
vfix_a2#branch                               0
vin#branch                                   0
vdd#branch                        -1.50297e-11

 Reference value :  2.88294e-08
 Reference value :  6.88344e-08
 Reference value :  1.12146e-07
 Reference value :  1.55356e-07
 Reference value :  1.96034e-07
 Reference value :  2.36889e-07
 Reference value :  2.79756e-07
 Reference value :  3.21216e-07
No. of Data Rows : 68030

  Measurements for Transient Analysis

tplh                =  2.80440e-09 targ=  2.90778e-08 trig=  2.62734e-08
tphl                =  3.37753e-09 targ=  1.04198e-07 trig=  1.00820e-07
i_vdd_avg           =  -2.05490e-06 from=  1.00000e-08 to=  3.30001e-07
power_avg_uw        =  3.72177e+00


Total analysis time (seconds) = 2.60925

Total elapsed time (seconds) = 2.679 

Total DRAM available = 16384.000 MB.
DRAM currently available =  128.172 MB.
Maximum ngspice program size =   15.891 MB.
Current ngspice program size =   15.891 MB.

