
Note: No compatibility mode selected!


Circuit: GF180MCU library cell mux2_1 I0_to_Z__I1=0,S=0

Doing analysis at TEMP = 49.340799 and TNOM = 27.000000

Using SPARSE 1.3 as Direct Linear Solver

Initial Transient Solution
--------------------------

Node                                   Voltage
----                                   -------
vdd                                    1.97902
i0                                           0
i1                                           0
s                                            0
xu1.int04                              1.97902
z                                  1.53712e-08
xu1.net_1                            0.0152534
xu1.net_3                              1.37632
xu1.sel1_n                             1.97902
xu1.net_0                              1.97902
xu1.net_2                              1.97902
vfix_s#branch                                0
vfix_i1#branch                               0
vin#branch                                   0
vdd#branch                        -1.10145e-11

 Reference value :  4.71925e-08
 Reference value :  1.03728e-07
 Reference value :  1.63438e-07
 Reference value :  2.22618e-07
 Reference value :  2.75028e-07
 Reference value :  3.32393e-07
No. of Data Rows : 68032

  Measurements for Transient Analysis

tplh                =  3.00029e-09 targ=  2.72028e-08 trig=  2.42025e-08
tphl                =  2.57562e-09 targ=  9.71832e-08 trig=  9.46076e-08
i_vdd_avg           =  -6.96072e-07 from=  1.00000e-08 to=  3.30003e-07
power_avg_uw        =  1.37754e+00


Total analysis time (seconds) = 1.86789

Total elapsed time (seconds) = 1.929 

Total DRAM available = 16384.000 MB.
DRAM currently available =   79.969 MB.
Maximum ngspice program size =   15.938 MB.
Current ngspice program size =   15.938 MB.

