
Note: No compatibility mode selected!


Circuit: GF180MCU library cell xor2_4 A1_to_Z__A2=0

Doing analysis at TEMP = 17.809443 and TNOM = 27.000000

Using SPARSE 1.3 as Direct Linear Solver

Initial Transient Solution
--------------------------

Node                                   Voltage
----                                   -------
vdd                                    1.87108
a1                                           0
a2                                           0
xu1.net_2                            0.0416394
xu1.i                                  1.87108
xu1.net_0                          4.81854e-09
xu1.z_neg                              1.87108
z                                  7.95157e-09
xu1.net_1                              1.87108
vfix_a2#branch                               0
vin#branch                                   0
vdd#branch                         -1.5245e-11

 Reference value :  3.23086e-08
 Reference value :  7.44136e-08
 Reference value :  1.15855e-07
 Reference value :  1.59330e-07
 Reference value :  1.99464e-07
 Reference value :  2.40714e-07
 Reference value :  2.83745e-07
 Reference value :  3.26045e-07
No. of Data Rows : 68032

  Measurements for Transient Analysis

tplh                =  1.16833e-09 targ=  2.76764e-08 trig=  2.65080e-08
tphl                =  2.12944e-09 targ=  1.03654e-07 trig=  1.01524e-07
i_vdd_avg           =  -1.07792e-06 from=  1.00000e-08 to=  3.30005e-07
power_avg_uw        =  2.01688e+00


Total analysis time (seconds) = 2.51693

Total elapsed time (seconds) = 2.584 

Total DRAM available = 16384.000 MB.
DRAM currently available =  106.609 MB.
Maximum ngspice program size =   16.812 MB.
Current ngspice program size =   16.812 MB.

