
Note: No compatibility mode selected!


Circuit: GF180MCU library cell nand3_1 A1_to_ZN__A2=1,A3=1

Doing analysis at TEMP = -34.911008 and TNOM = 27.000000

Using SPARSE 1.3 as Direct Linear Solver

Initial Transient Solution
--------------------------

Node                                   Voltage
----                                   -------
vdd                                    1.77162
a1                                           0
a2                                     1.77162
a3                                     1.77162
xu1.net_1                          3.03884e-13
xu1.net_0                           6.0773e-13
zn                                     1.77162
vfix_a3#branch                               0
vfix_a2#branch                               0
vin#branch                                   0
vdd#branch                        -1.78168e-12

 Reference value :  8.98985e-08
 Reference value :  1.89114e-07
 Reference value :  2.92535e-07
No. of Data Rows : 68032

  Measurements for Transient Analysis

tphl                =  2.20586e-09 targ=  2.72439e-08 trig=  2.50380e-08
tplh                =  2.74160e-09 targ=  9.98557e-08 trig=  9.71141e-08
i_vdd_avg           =  -5.83502e-07 from=  1.00000e-08 to=  3.30005e-07
power_avg_uw        =  1.03374e+00


Total analysis time (seconds) = 1.01097

Total elapsed time (seconds) = 1.085 

Total DRAM available = 16384.000 MB.
DRAM currently available =  102.047 MB.
Maximum ngspice program size =   14.922 MB.
Current ngspice program size =   14.922 MB.

