
Note: No compatibility mode selected!


Circuit: GF180MCU library cell oai21_4 A1_to_ZN__A2=0,B=1

Doing analysis at TEMP = 41.022694 and TNOM = 27.000000

Using SPARSE 1.3 as Direct Linear Solver

Initial Transient Solution
--------------------------

Node                                   Voltage
----                                   -------
vdd                                    1.65829
a1                                           0
a2                                           0
b                                      1.65829
zn                                     1.65829
xu1.net_0                          2.75383e-08
xu1.net_1_0                            1.65829
xu1.net_1_1                            1.65829
xu1.net_1_2                            1.65829
xu1.net_1_3                            1.65829
vfix_b#branch                                0
vfix_a2#branch                               0
vin#branch                                   0
vdd#branch                        -3.59175e-11

 Reference value :  1.96364e-08
 Reference value :  4.91805e-08
 Reference value :  7.75405e-08
 Reference value :  1.06294e-07
 Reference value :  1.37469e-07
 Reference value :  1.67844e-07
 Reference value :  1.99091e-07
 Reference value :  2.31086e-07
 Reference value :  2.61141e-07
 Reference value :  2.93159e-07
 Reference value :  3.25609e-07
No. of Data Rows : 68034

  Measurements for Transient Analysis

tphl                =  5.30435e-10 targ=  2.75620e-08 trig=  2.70315e-08
tplh                =  1.88097e-09 targ=  1.04976e-07 trig=  1.03095e-07
i_vdd_avg           =  -4.62962e-07 from=  1.00000e-08 to=  3.30004e-07
power_avg_uw        =  7.67727e-01


Total analysis time (seconds) = 3.69017

Total elapsed time (seconds) = 3.766 

Total DRAM available = 16384.000 MB.
DRAM currently available =  118.266 MB.
Maximum ngspice program size =   19.016 MB.
Current ngspice program size =   19.016 MB.

