
Note: No compatibility mode selected!


Circuit: GF180MCU library cell nor2_1 A1_to_ZN__A2=0

Doing analysis at TEMP = 60.930428 and TNOM = 27.000000

Using SPARSE 1.3 as Direct Linear Solver

Initial Transient Solution
--------------------------

Node                                   Voltage
----                                   -------
vdd                                    1.68599
a1                                           0
a2                                           0
zn                                     1.68599
xu1.net_0                              1.68599
vfix_a2#branch                               0
vin#branch                                   0
vdd#branch                        -2.30642e-11

 Reference value :  1.17622e-07
 Reference value :  2.71417e-07
No. of Data Rows : 68032

  Measurements for Transient Analysis

tphl                =  7.91386e-10 targ=  2.48689e-08 trig=  2.40775e-08
tplh                =  2.67043e-09 targ=  9.69029e-08 trig=  9.42324e-08
i_vdd_avg           =  -5.31685e-07 from=  1.00000e-08 to=  3.30002e-07
power_avg_uw        =  8.96417e-01


Total analysis time (seconds) = 0.71503

Total elapsed time (seconds) = 0.774 

Total DRAM available = 16384.000 MB.
DRAM currently available =   84.797 MB.
Maximum ngspice program size =   16.609 MB.
Current ngspice program size =   16.609 MB.

