
Note: No compatibility mode selected!


Circuit: GF180MCU library cell xor2_4 A1_to_Z__A2=0

Doing analysis at TEMP = -12.074641 and TNOM = 27.000000

Using SPARSE 1.3 as Direct Linear Solver

Initial Transient Solution
--------------------------

Node                                   Voltage
----                                   -------
vdd                                    1.63575
a1                                           0
a2                                           0
xu1.net_2                            0.0206499
xu1.i                                  1.63575
xu1.net_0                          3.56529e-10
xu1.z_neg                              1.63575
z                                  7.44197e-09
xu1.net_1                              1.63575
vfix_a2#branch                               0
vin#branch                                   0
vdd#branch                        -1.20427e-11

 Reference value :  2.72875e-08
 Reference value :  7.14658e-08
 Reference value :  1.12431e-07
 Reference value :  1.52054e-07
 Reference value :  1.95896e-07
 Reference value :  2.37316e-07
 Reference value :  2.79409e-07
 Reference value :  3.20944e-07
No. of Data Rows : 68034

  Measurements for Transient Analysis

tplh                =  1.19163e-09 targ=  2.98508e-08 trig=  2.86591e-08
tphl                =  2.95001e-09 targ=  1.10927e-07 trig=  1.07977e-07
i_vdd_avg           =  -2.93459e-07 from=  1.00000e-08 to=  3.30004e-07
power_avg_uw        =  4.80027e-01


Total analysis time (seconds) = 2.62164

Total elapsed time (seconds) = 2.695 

Total DRAM available = 16384.000 MB.
DRAM currently available =  121.625 MB.
Maximum ngspice program size =   16.672 MB.
Current ngspice program size =   16.672 MB.

