
Note: No compatibility mode selected!


Circuit: GF180MCU library cell aoi21_1 A1_to_ZN__A2=1,B=0

Doing analysis at TEMP = 19.614307 and TNOM = 27.000000

Using SPARSE 1.3 as Direct Linear Solver

Initial Transient Solution
--------------------------

Node                                   Voltage
----                                   -------
vdd                                    1.80022
a1                                           0
a2                                     1.80022
b                                            0
xu1.net_0                          2.80343e-09
zn                                     1.80022
xu1.net_1                              1.80022
vfix_b#branch                                0
vfix_a2#branch                               0
vin#branch                                   0
vdd#branch                        -5.08295e-12

 Reference value :  7.43435e-08
 Reference value :  1.83360e-07
 Reference value :  2.92755e-07
No. of Data Rows : 68032

  Measurements for Transient Analysis

tphl                =  3.37291e-09 targ=  2.98734e-08 trig=  2.65005e-08
tplh                =  7.57039e-09 targ=  1.09072e-07 trig=  1.01502e-07
i_vdd_avg           =  -1.65090e-06 from=  1.00000e-08 to=  3.30005e-07
power_avg_uw        =  2.97198e+00


Total analysis time (seconds) = 0.997269

Total elapsed time (seconds) = 1.071 

Total DRAM available = 16384.000 MB.
DRAM currently available =  114.328 MB.
Maximum ngspice program size =   15.125 MB.
Current ngspice program size =   15.125 MB.

