
Note: No compatibility mode selected!


Circuit: GF180MCU library cell mux2_1 I0_to_Z__I1=0,S=0

Doing analysis at TEMP = 52.904019 and TNOM = 27.000000

Using SPARSE 1.3 as Direct Linear Solver

Initial Transient Solution
--------------------------

Node                                   Voltage
----                                   -------
vdd                                    1.72555
i0                                           0
i1                                           0
s                                            0
xu1.int04                              1.72555
z                                  1.17471e-08
xu1.net_1                            0.0378948
xu1.net_3                              1.26146
xu1.sel1_n                             1.72555
xu1.net_0                              1.72555
xu1.net_2                              1.72555
vfix_s#branch                                0
vfix_i1#branch                               0
vin#branch                                   0
vdd#branch                        -1.21265e-11

 Reference value :  5.20118e-08
 Reference value :  1.13372e-07
 Reference value :  1.71481e-07
 Reference value :  2.32292e-07
 Reference value :  2.85236e-07
No. of Data Rows : 68032

  Measurements for Transient Analysis

tplh                =  4.30731e-09 targ=  3.34995e-08 trig=  2.91922e-08
tphl                =  4.67125e-09 targ=  1.14248e-07 trig=  1.09576e-07
i_vdd_avg           =  -1.01215e-06 from=  1.00000e-08 to=  3.30001e-07
power_avg_uw        =  1.74651e+00


Total analysis time (seconds) = 1.7903

Total elapsed time (seconds) = 1.848 

Total DRAM available = 16384.000 MB.
DRAM currently available =   74.031 MB.
Maximum ngspice program size =   14.172 MB.
Current ngspice program size =   14.172 MB.

