
Note: No compatibility mode selected!


Circuit: GF180MCU library cell nor2_4 A1_to_ZN__A2=0

Doing analysis at TEMP = -18.564798 and TNOM = 27.000000

Using SPARSE 1.3 as Direct Linear Solver

Initial Transient Solution
--------------------------

Node                                   Voltage
----                                   -------
vdd                                    1.85449
a1                                           0
a2                                           0
zn                                     1.85448
xu1.net_0_0                            1.85449
xu1.net_0_1                            1.85449
xu1.net_0_2                            1.85449
xu1.net_0_3                            1.85449
vfix_a2#branch                               0
vin#branch                                   0
vdd#branch                         -1.4916e-11

 Reference value :  3.11822e-08
 Reference value :  8.10072e-08
 Reference value :  1.30162e-07
 Reference value :  1.76772e-07
 Reference value :  2.22387e-07
 Reference value :  2.71627e-07
 Reference value :  3.17942e-07
No. of Data Rows : 68032

  Measurements for Transient Analysis

tphl                =  1.30820e-09 targ=  2.66206e-08 trig=  2.53124e-08
tplh                =  2.86183e-09 targ=  1.00799e-07 trig=  9.79371e-08
i_vdd_avg           =  -9.36083e-07 from=  1.00000e-08 to=  3.30002e-07
power_avg_uw        =  1.73595e+00


Total analysis time (seconds) = 2.36929

Total elapsed time (seconds) = 2.451 

Total DRAM available = 16384.000 MB.
DRAM currently available =  118.375 MB.
Maximum ngspice program size =   17.922 MB.
Current ngspice program size =   17.922 MB.

