
Note: No compatibility mode selected!


Circuit: GF180MCU library cell nand2_1 A1_to_ZN__A2=1

Doing analysis at TEMP = 78.512817 and TNOM = 27.000000

Using SPARSE 1.3 as Direct Linear Solver

Initial Transient Solution
--------------------------

Node                                   Voltage
----                                   -------
vdd                                    1.79049
a1                                           0
a2                                     1.79049
xu1.net_0                           7.8295e-10
zn                                     1.79049
vfix_a2#branch                               0
vin#branch                                   0
vdd#branch                         -1.8852e-12

 Reference value :  1.25375e-07
 Reference value :  2.90190e-07
No. of Data Rows : 68032

  Measurements for Transient Analysis

tphl                =  9.42107e-09 targ=  3.54766e-08 trig=  2.60555e-08
tplh                =  1.37262e-08 targ=  1.13893e-07 trig=  1.00167e-07
i_vdd_avg           =  -2.18607e-06 from=  1.00000e-08 to=  3.30005e-07
power_avg_uw        =  3.91415e+00


Total analysis time (seconds) = 0.648812

Total elapsed time (seconds) = 0.719 

Total DRAM available = 16384.000 MB.
DRAM currently available =  119.094 MB.
Maximum ngspice program size =   15.875 MB.
Current ngspice program size =   15.875 MB.

