
Note: No compatibility mode selected!


Circuit: GF180MCU library cell aoi21_1 A1_to_ZN__A2=1,B=0

Doing analysis at TEMP = 35.468594 and TNOM = 27.000000

Using SPARSE 1.3 as Direct Linear Solver

Initial Transient Solution
--------------------------

Node                                   Voltage
----                                   -------
vdd                                     1.7314
a1                                           0
a2                                      1.7314
b                                            0
xu1.net_0                          4.54668e-10
zn                                      1.7314
xu1.net_1                               1.7314
vfix_b#branch                                0
vfix_a2#branch                               0
vin#branch                                   0
vdd#branch                        -3.65175e-12

 Reference value :  7.15763e-08
 Reference value :  1.74700e-07
 Reference value :  2.75435e-07
No. of Data Rows : 68032

  Measurements for Transient Analysis

tphl                =  6.45639e-09 targ=  3.36083e-08 trig=  2.71519e-08
tplh                =  1.59752e-08 targ=  1.19431e-07 trig=  1.03456e-07
i_vdd_avg           =  -2.00795e-06 from=  1.00000e-08 to=  3.30000e-07
power_avg_uw        =  3.47657e+00


Total analysis time (seconds) = 1.09268

Total elapsed time (seconds) = 1.188 

Total DRAM available = 16384.000 MB.
DRAM currently available =   98.141 MB.
Maximum ngspice program size =   18.469 MB.
Current ngspice program size =   18.469 MB.

