
Note: No compatibility mode selected!


Circuit: GF180MCU library cell aoi21_4 A1_to_ZN__A2=1,B=0

Doing analysis at TEMP = 25.378365 and TNOM = 27.000000

Using SPARSE 1.3 as Direct Linear Solver

Initial Transient Solution
--------------------------

Node                                   Voltage
----                                   -------
vdd                                    1.88558
a1                                           0
a2                                     1.88558
b                                            0
xu1.net_0_0                        4.32462e-09
zn                                     1.88558
xu1.net_0_1                        4.32462e-09
xu1.net_0_2                        4.32462e-09
xu1.net_0_3                        4.32462e-09
xu1.net_1                              1.88558
vfix_b#branch                                0
vfix_a2#branch                               0
vin#branch                                   0
vdd#branch                        -2.44603e-11

 Reference value :  2.93575e-08
 Reference value :  6.38478e-08
 Reference value :  9.37278e-08
 Reference value :  1.21993e-07
 Reference value :  1.54128e-07
 Reference value :  1.86318e-07
 Reference value :  2.17233e-07
 Reference value :  2.49658e-07
 Reference value :  2.80843e-07
 Reference value :  3.13143e-07
No. of Data Rows : 68032

  Measurements for Transient Analysis

tphl                =  1.56868e-09 targ=  2.89688e-08 trig=  2.74001e-08
tplh                =  3.44744e-09 targ=  1.07648e-07 trig=  1.04200e-07
i_vdd_avg           =  -2.22219e-06 from=  1.00000e-08 to=  3.30003e-07
power_avg_uw        =  4.19011e+00


Total analysis time (seconds) = 3.41025

Total elapsed time (seconds) = 3.499 

Total DRAM available = 16384.000 MB.
DRAM currently available =   79.766 MB.
Maximum ngspice program size =   16.609 MB.
Current ngspice program size =   16.609 MB.

