
Note: No compatibility mode selected!


Circuit: GF180MCU library cell nor2_4 A1_to_ZN__A2=0

Doing analysis at TEMP = 92.647615 and TNOM = 27.000000

Using SPARSE 1.3 as Direct Linear Solver

Initial Transient Solution
--------------------------

Node                                   Voltage
----                                   -------
vdd                                    1.92274
a1                                           0
a2                                           0
zn                                     1.92274
xu1.net_0_0                            1.92274
xu1.net_0_1                            1.92274
xu1.net_0_2                            1.92274
xu1.net_0_3                            1.92274
vfix_a2#branch                               0
vin#branch                                   0
vdd#branch                        -4.33906e-11

 Reference value :  3.64922e-08
 Reference value :  8.49922e-08
 Reference value :  1.34047e-07
 Reference value :  1.76852e-07
 Reference value :  2.23627e-07
 Reference value :  2.69642e-07
 Reference value :  3.16287e-07
No. of Data Rows : 68032

  Measurements for Transient Analysis

tphl                =  1.86385e-09 targ=  2.80662e-08 trig=  2.62023e-08
tplh                =  4.07645e-09 targ=  1.04683e-07 trig=  1.00607e-07
i_vdd_avg           =  -2.24449e-06 from=  1.00000e-08 to=  3.30002e-07
power_avg_uw        =  4.31556e+00


Total analysis time (seconds) = 2.34974

Total elapsed time (seconds) = 2.411 

Total DRAM available = 16384.000 MB.
DRAM currently available =  131.219 MB.
Maximum ngspice program size =   16.016 MB.
Current ngspice program size =   16.016 MB.

