
Note: No compatibility mode selected!


Circuit: GF180MCU library cell mux2_4 I0_to_Z__I1=0,S=0

Doing analysis at TEMP = -11.262696 and TNOM = 27.000000

Using SPARSE 1.3 as Direct Linear Solver

Initial Transient Solution
--------------------------

Node                                   Voltage
----                                   -------
vdd                                    1.85963
i0                                           0
i1                                           0
s                                            0
xu1.int04                              1.85963
z                                  1.31236e-08
xu1.net_1                          9.97096e-06
xu1.net_3                              1.08062
xu1.sel1_n                             1.85963
xu1.net_0                              1.85963
xu1.net_2                              1.85963
vfix_s#branch                                0
vfix_i1#branch                               0
vin#branch                                   0
vdd#branch                        -1.55776e-11

 Reference value :  2.81519e-08
 Reference value :  6.99719e-08
 Reference value :  1.08336e-07
 Reference value :  1.48646e-07
 Reference value :  1.88282e-07
 Reference value :  2.22672e-07
 Reference value :  2.60882e-07
 Reference value :  3.01786e-07
No. of Data Rows : 68032

  Measurements for Transient Analysis

tplh                =  2.74468e-09 targ=  2.86794e-08 trig=  2.59347e-08
tphl                =  3.68571e-09 targ=  1.03490e-07 trig=  9.98040e-08
i_vdd_avg           =  -1.09272e-06 from=  1.00000e-08 to=  3.30001e-07
power_avg_uw        =  2.03205e+00


Total analysis time (seconds) = 2.79981

Total elapsed time (seconds) = 2.862 

Total DRAM available = 16384.000 MB.
DRAM currently available =   87.297 MB.
Maximum ngspice program size =   16.188 MB.
Current ngspice program size =   16.188 MB.

