
Note: No compatibility mode selected!


Circuit: GF180MCU library cell nand3_1 A1_to_ZN__A2=1,A3=1

Doing analysis at TEMP = 96.465913 and TNOM = 27.000000

Using SPARSE 1.3 as Direct Linear Solver

Initial Transient Solution
--------------------------

Node                                   Voltage
----                                   -------
vdd                                    1.84326
a1                                           0
a2                                     1.84326
a3                                     1.84326
xu1.net_1                          2.68789e-08
xu1.net_0                          5.37579e-08
zn                                     1.84326
vfix_a3#branch                               0
vfix_a2#branch                               0
vin#branch                                   0
vdd#branch                        -5.91957e-12

 Reference value :  6.66146e-08
 Reference value :  1.57612e-07
 Reference value :  2.54830e-07
No. of Data Rows : 68030

  Measurements for Transient Analysis

tphl                =  6.06115e-10 targ=  2.70097e-08 trig=  2.64036e-08
tplh                =  1.20718e-09 targ=  1.02418e-07 trig=  1.01211e-07
i_vdd_avg           =  -7.33586e-08 from=  1.00000e-08 to=  3.30002e-07
power_avg_uw        =  1.35219e-01


Total analysis time (seconds) = 1.1789

Total elapsed time (seconds) = 1.246 

Total DRAM available = 16384.000 MB.
DRAM currently available =  114.172 MB.
Maximum ngspice program size =   15.688 MB.
Current ngspice program size =   15.688 MB.

