
Note: No compatibility mode selected!


Circuit: GF180MCU library cell xor2_1 A1_to_Z__A2=0

Doing analysis at TEMP = 11.712261 and TNOM = 27.000000

Using SPARSE 1.3 as Direct Linear Solver

Initial Transient Solution
--------------------------

Node                                   Voltage
----                                   -------
vdd                                    1.90645
a1                                           0
a2                                           0
xu1.i                                  1.90645
z                                  2.88506e-08
xu1.net_0                           9.7104e-09
xu1.net_2                              1.90645
xu1.net_1                             0.694275
vfix_a2#branch                               0
vin#branch                                   0
vdd#branch                         -1.4106e-11

 Reference value :  4.50469e-08
 Reference value :  1.19181e-07
 Reference value :  1.96967e-07
 Reference value :  2.68096e-07
 Reference value :  3.38776e-07
No. of Data Rows : 68032

  Measurements for Transient Analysis

tplh                =  7.65664e-09 targ=  3.45413e-08 trig=  2.68847e-08
tphl                =  3.24297e-09 targ=  1.05897e-07 trig=  1.02654e-07
i_vdd_avg           =  -2.40993e-06 from=  1.00000e-08 to=  3.30001e-07
power_avg_uw        =  4.59443e+00


Total analysis time (seconds) = 1.54233

Total elapsed time (seconds) = 1.613 

Total DRAM available = 16384.000 MB.
DRAM currently available =  113.656 MB.
Maximum ngspice program size =   16.109 MB.
Current ngspice program size =   16.109 MB.

