
Note: No compatibility mode selected!


Circuit: GF180MCU library cell aoi21_4 A1_to_ZN__A2=1,B=0

Doing analysis at TEMP = 78.429058 and TNOM = 27.000000

Using SPARSE 1.3 as Direct Linear Solver

Initial Transient Solution
--------------------------

Node                                   Voltage
----                                   -------
vdd                                    1.87597
a1                                           0
a2                                     1.87597
b                                            0
xu1.net_0_0                        1.31545e-07
zn                                     1.87597
xu1.net_0_1                        1.31545e-07
xu1.net_0_2                        1.31545e-07
xu1.net_0_3                        1.31545e-07
xu1.net_1                              1.87597
vfix_b#branch                                0
vfix_a2#branch                               0
vin#branch                                   0
vdd#branch                        -2.48736e-10

 Reference value :  2.30864e-08
 Reference value :  5.34360e-08
 Reference value :  8.53910e-08
 Reference value :  1.15774e-07
 Reference value :  1.47334e-07
 Reference value :  1.78204e-07
 Reference value :  2.08896e-07
 Reference value :  2.38941e-07
 Reference value :  2.71534e-07
 Reference value :  3.05004e-07
 Reference value :  3.37414e-07
No. of Data Rows : 68034

  Measurements for Transient Analysis

tphl                =  1.68844e-09 targ=  2.96852e-08 trig=  2.79967e-08
tplh                =  3.87328e-09 targ=  1.09864e-07 trig=  1.05990e-07
i_vdd_avg           =  -2.32328e-06 from=  1.00000e-08 to=  3.30004e-07
power_avg_uw        =  4.35840e+00


Total analysis time (seconds) = 3.56331

Total elapsed time (seconds) = 3.626 

Total DRAM available = 16384.000 MB.
DRAM currently available =   90.125 MB.
Maximum ngspice program size =   14.922 MB.
Current ngspice program size =   14.922 MB.

