
Note: No compatibility mode selected!


Circuit: GF180MCU library cell oai21_1 A1_to_ZN__A2=0,B=1

Doing analysis at TEMP = 53.703246 and TNOM = 27.000000

Using SPARSE 1.3 as Direct Linear Solver

Initial Transient Solution
--------------------------

Node                                   Voltage
----                                   -------
vdd                                    1.90046
a1                                           0
a2                                           0
b                                      1.90046
zn                                     1.90046
xu1.net_0                          6.12059e-08
xu1.net_1                              1.90046
vfix_b#branch                                0
vfix_a2#branch                               0
vin#branch                                   0
vdd#branch                        -1.79682e-11

 Reference value :  7.11823e-08
 Reference value :  1.83787e-07
 Reference value :  2.90547e-07
No. of Data Rows : 68032

  Measurements for Transient Analysis

tphl                =  1.48467e-09 targ=  2.64795e-08 trig=  2.49949e-08
tplh                =  3.31449e-09 targ=  1.00299e-07 trig=  9.69846e-08
i_vdd_avg           =  -8.18896e-07 from=  1.00000e-08 to=  3.30002e-07
power_avg_uw        =  1.55628e+00


Total analysis time (seconds) = 1.00326

Total elapsed time (seconds) = 1.087 

Total DRAM available = 16384.000 MB.
DRAM currently available =  105.797 MB.
Maximum ngspice program size =   17.938 MB.
Current ngspice program size =   17.938 MB.

