
Note: No compatibility mode selected!


Circuit: GF180MCU library cell nand3_1 A1_to_ZN__A2=1,A3=1

Doing analysis at TEMP = 107.188930 and TNOM = 27.000000

Using SPARSE 1.3 as Direct Linear Solver

Initial Transient Solution
--------------------------

Node                                   Voltage
----                                   -------
vdd                                    1.63864
a1                                           0
a2                                     1.63864
a3                                     1.63864
xu1.net_1                          5.27594e-09
xu1.net_0                          1.05518e-08
zn                                     1.63864
vfix_a3#branch                               0
vfix_a2#branch                               0
vin#branch                                   0
vdd#branch                        -2.11588e-12

 Reference value :  8.28061e-08
 Reference value :  1.88198e-07
 Reference value :  2.88485e-07
No. of Data Rows : 68034

  Measurements for Transient Analysis

tphl                =  1.62645e-08 targ=  4.57388e-08 trig=  2.94743e-08
tplh                =  1.95804e-08 targ=  1.30003e-07 trig=  1.10423e-07
i_vdd_avg           =  -1.76951e-06 from=  1.00000e-08 to=  3.30005e-07
power_avg_uw        =  2.89959e+00


Total analysis time (seconds) = 0.979792

Total elapsed time (seconds) = 1.046 

Total DRAM available = 16384.000 MB.
DRAM currently available =  157.578 MB.
Maximum ngspice program size =   14.656 MB.
Current ngspice program size =   14.656 MB.

