
Note: No compatibility mode selected!


Circuit: GF180MCU library cell mux2_1 I0_to_Z__I1=0,S=0

Doing analysis at TEMP = 113.372070 and TNOM = 27.000000

Using SPARSE 1.3 as Direct Linear Solver

Initial Transient Solution
--------------------------

Node                                   Voltage
----                                   -------
vdd                                    1.75569
i0                                           0
i1                                           0
s                                            0
xu1.int04                              1.75567
z                                  2.76785e-08
xu1.net_1                            0.0536407
xu1.net_3                              1.32806
xu1.sel1_n                             1.75568
xu1.net_0                              1.75569
xu1.net_2                              1.75568
vfix_s#branch                                0
vfix_i1#branch                               0
vin#branch                                   0
vdd#branch                        -6.16436e-10

 Reference value :  5.39443e-08
 Reference value :  1.12331e-07
 Reference value :  1.71271e-07
 Reference value :  2.26239e-07
 Reference value :  2.84176e-07
No. of Data Rows : 68030

  Measurements for Transient Analysis

tplh                =  4.39681e-09 targ=  3.13727e-08 trig=  2.69759e-08
tphl                =  3.67165e-09 targ=  1.06599e-07 trig=  1.02928e-07
i_vdd_avg           =  -1.84880e-06 from=  1.00000e-08 to=  3.30001e-07
power_avg_uw        =  3.24591e+00


Total analysis time (seconds) = 1.82235

Total elapsed time (seconds) = 1.881 

Total DRAM available = 16384.000 MB.
DRAM currently available =   94.891 MB.
Maximum ngspice program size =   14.781 MB.
Current ngspice program size =   14.781 MB.

