
Note: No compatibility mode selected!


Circuit: GF180MCU library cell mux2_1 I0_to_Z__I1=0,S=0

Doing analysis at TEMP = -13.415576 and TNOM = 27.000000

Using SPARSE 1.3 as Direct Linear Solver

Initial Transient Solution
--------------------------

Node                                   Voltage
----                                   -------
vdd                                    1.68159
i0                                           0
i1                                           0
s                                            0
xu1.int04                              1.68159
z                                  7.36616e-09
xu1.net_1                            0.0198863
xu1.net_3                              1.21346
xu1.sel1_n                             1.68159
xu1.net_0                              1.68159
xu1.net_2                              1.68159
vfix_s#branch                                0
vfix_i1#branch                               0
vin#branch                                   0
vdd#branch                        -9.66559e-12

 Reference value :  5.66752e-08
 Reference value :  1.22213e-07
 Reference value :  1.80298e-07
 Reference value :  2.35410e-07
 Reference value :  2.87523e-07
No. of Data Rows : 68034

  Measurements for Transient Analysis

tplh                =  3.62003e-09 targ=  3.36164e-08 trig=  2.99964e-08
tphl                =  4.16259e-09 targ=  1.16152e-07 trig=  1.11989e-07
i_vdd_avg           =  -1.54483e-06 from=  1.00000e-08 to=  3.30003e-07
power_avg_uw        =  2.59777e+00


Total analysis time (seconds) = 1.80307

Total elapsed time (seconds) = 1.865 

Total DRAM available = 16384.000 MB.
DRAM currently available =  124.828 MB.
Maximum ngspice program size =   15.422 MB.
Current ngspice program size =   15.422 MB.

