
Note: No compatibility mode selected!


Circuit: GF180MCU library cell nand3_4 A1_to_ZN__A2=1,A3=1

Doing analysis at TEMP = 3.998440 and TNOM = 27.000000

Using SPARSE 1.3 as Direct Linear Solver

Initial Transient Solution
--------------------------

Node                                   Voltage
----                                   -------
vdd                                    1.81585
a1                                           0
a2                                     1.81585
a3                                     1.81585
xu1.net_1_3                        2.66526e-11
xu1.net_0                          5.33053e-11
xu1.net_1_2                        2.66527e-11
xu1.net_1_1                        2.66526e-11
xu1.net_1_0                        2.66526e-11
xu1.net_0_0                        5.33052e-11
zn                                     1.81585
vfix_a3#branch                               0
vfix_a2#branch                               0
vin#branch                                   0
vdd#branch                        -7.32369e-12

 Reference value :  2.68025e-08
 Reference value :  5.46285e-08
 Reference value :  8.39635e-08
 Reference value :  1.13164e-07
 Reference value :  1.42814e-07
 Reference value :  1.80134e-07
 Reference value :  2.13018e-07
 Reference value :  2.43473e-07
 Reference value :  2.75949e-07
 Reference value :  3.05594e-07
 Reference value :  3.36879e-07
No. of Data Rows : 68032

  Measurements for Transient Analysis

tphl                =  2.07536e-09 targ=  2.97108e-08 trig=  2.76355e-08
tplh                =  3.07399e-09 targ=  1.07980e-07 trig=  1.04906e-07
i_vdd_avg           =  -1.10058e-06 from=  1.00000e-08 to=  3.30004e-07
power_avg_uw        =  1.99849e+00


Total analysis time (seconds) = 3.43414

Total elapsed time (seconds) = 3.501 

Total DRAM available = 16384.000 MB.
DRAM currently available =   88.531 MB.
Maximum ngspice program size =   15.469 MB.
Current ngspice program size =   15.469 MB.

