
Note: No compatibility mode selected!


Circuit: GF180MCU library cell mux2_4 I0_to_Z__I1=0,S=0

Doing analysis at TEMP = 22.145933 and TNOM = 27.000000

Using SPARSE 1.3 as Direct Linear Solver

Initial Transient Solution
--------------------------

Node                                   Voltage
----                                   -------
vdd                                    1.82556
i0                                           0
i1                                           0
s                                            0
xu1.int04                              1.82556
z                                  1.47172e-08
xu1.net_1                          0.000351435
xu1.net_3                              1.11188
xu1.sel1_n                             1.82556
xu1.net_0                              1.82556
xu1.net_2                              1.82556
vfix_s#branch                                0
vfix_i1#branch                               0
vin#branch                                   0
vdd#branch                        -1.53963e-11

 Reference value :  3.11375e-08
 Reference value :  7.10989e-08
 Reference value :  1.10384e-07
 Reference value :  1.52640e-07
 Reference value :  1.92758e-07
 Reference value :  2.27884e-07
 Reference value :  2.64924e-07
 Reference value :  3.07245e-07
No. of Data Rows : 68030

  Measurements for Transient Analysis

tplh                =  5.02678e-09 targ=  3.48350e-08 trig=  2.98082e-08
tphl                =  6.36136e-09 targ=  1.17786e-07 trig=  1.11425e-07
i_vdd_avg           =  -1.83624e-06 from=  1.00000e-08 to=  3.30000e-07
power_avg_uw        =  3.35216e+00


Total analysis time (seconds) = 2.71854

Total elapsed time (seconds) = 2.788 

Total DRAM available = 16384.000 MB.
DRAM currently available =  103.500 MB.
Maximum ngspice program size =   16.625 MB.
Current ngspice program size =   16.625 MB.

