
Note: No compatibility mode selected!


Circuit: GF180MCU library cell nand2_1 A1_to_ZN__A2=1

Doing analysis at TEMP = 65.886722 and TNOM = 27.000000

Using SPARSE 1.3 as Direct Linear Solver

Initial Transient Solution
--------------------------

Node                                   Voltage
----                                   -------
vdd                                    1.95693
a1                                           0
a2                                     1.95693
xu1.net_0                          2.97443e-10
zn                                     1.95693
vfix_a2#branch                               0
vin#branch                                   0
vdd#branch                        -2.00466e-12

 Reference value :  1.06434e-07
 Reference value :  2.58459e-07
No. of Data Rows : 68032

  Measurements for Transient Analysis

tphl                =  5.45380e-09 targ=  2.97641e-08 trig=  2.43103e-08
tplh                =  7.78663e-09 targ=  1.02718e-07 trig=  9.49310e-08
i_vdd_avg           =  -1.80945e-06 from=  1.00000e-08 to=  3.30004e-07
power_avg_uw        =  3.54097e+00


Total analysis time (seconds) = 0.721332

Total elapsed time (seconds) = 0.809 

Total DRAM available = 16384.000 MB.
DRAM currently available =  124.516 MB.
Maximum ngspice program size =   16.875 MB.
Current ngspice program size =   16.875 MB.

