
Note: No compatibility mode selected!


Circuit: GF180MCU library cell nand3_1 A1_to_ZN__A2=1,A3=1

Doing analysis at TEMP = -29.971880 and TNOM = 27.000000

Using SPARSE 1.3 as Direct Linear Solver

Initial Transient Solution
--------------------------

Node                                   Voltage
----                                   -------
vdd                                    1.82485
a1                                           0
a2                                     1.82485
a3                                     1.82485
xu1.net_1                           5.7226e-13
xu1.net_0                          1.14443e-12
zn                                     1.82485
vfix_a3#branch                               0
vfix_a2#branch                               0
vin#branch                                   0
vdd#branch                        -1.83497e-12

 Reference value :  9.32688e-08
 Reference value :  1.98784e-07
 Reference value :  3.00185e-07
No. of Data Rows : 68030

  Measurements for Transient Analysis

tphl                =  2.09577e-09 targ=  2.77439e-08 trig=  2.56481e-08
tplh                =  2.64374e-09 targ=  1.01588e-07 trig=  9.89444e-08
i_vdd_avg           =  -4.98887e-07 from=  1.00000e-08 to=  3.30000e-07
power_avg_uw        =  9.10394e-01


Total analysis time (seconds) = 0.985891

Total elapsed time (seconds) = 1.056 

Total DRAM available = 16384.000 MB.
DRAM currently available =   83.266 MB.
Maximum ngspice program size =   12.891 MB.
Current ngspice program size =   12.797 MB.

