
Note: No compatibility mode selected!


Circuit: GF180MCU library cell nand2_1 A1_to_ZN__A2=1

Doing analysis at TEMP = 42.017690 and TNOM = 27.000000

Using SPARSE 1.3 as Direct Linear Solver

Initial Transient Solution
--------------------------

Node                                   Voltage
----                                   -------
vdd                                    1.87405
a1                                           0
a2                                     1.87405
xu1.net_0                          1.42659e-08
zn                                     1.87405
vfix_a2#branch                               0
vin#branch                                   0
vdd#branch                        -5.23449e-12

 Reference value :  1.14552e-07
 Reference value :  2.69737e-07
No. of Data Rows : 68032

  Measurements for Transient Analysis

tphl                =  2.40052e-09 targ=  3.17325e-08 trig=  2.93320e-08
tplh                =  4.09824e-09 targ=  1.14094e-07 trig=  1.09996e-07
i_vdd_avg           =  -8.33393e-07 from=  1.00000e-08 to=  3.30001e-07
power_avg_uw        =  1.56182e+00


Total analysis time (seconds) = 0.702676

Total elapsed time (seconds) = 0.772 

Total DRAM available = 16384.000 MB.
DRAM currently available =  183.672 MB.
Maximum ngspice program size =   17.703 MB.
Current ngspice program size =   17.703 MB.

