
Note: No compatibility mode selected!


Circuit: GF180MCU library cell nand3_4 A1_to_ZN__A2=1,A3=1

Doing analysis at TEMP = 91.806625 and TNOM = 27.000000

Using SPARSE 1.3 as Direct Linear Solver

Initial Transient Solution
--------------------------

Node                                   Voltage
----                                   -------
vdd                                    1.67395
a1                                           0
a2                                     1.67395
a3                                     1.67395
xu1.net_1_3                        2.00598e-09
xu1.net_0                          4.01195e-09
xu1.net_1_2                        2.00598e-09
xu1.net_1_1                        2.00598e-09
xu1.net_1_0                        2.00598e-09
xu1.net_0_0                        4.01195e-09
zn                                     1.67395
vfix_a3#branch                               0
vfix_a2#branch                               0
vin#branch                                   0
vdd#branch                        -7.49573e-12

 Reference value :  2.93625e-08
 Reference value :  6.38273e-08
 Reference value :  8.98073e-08
 Reference value :  1.21097e-07
 Reference value :  1.52087e-07
 Reference value :  1.84728e-07
 Reference value :  2.15197e-07
 Reference value :  2.45397e-07
 Reference value :  2.74162e-07
 Reference value :  3.02807e-07
 Reference value :  3.34342e-07
No. of Data Rows : 68032

  Measurements for Transient Analysis

tphl                =  5.40869e-09 targ=  3.48361e-08 trig=  2.94274e-08
tplh                =  6.83845e-09 targ=  1.17121e-07 trig=  1.10282e-07
i_vdd_avg           =  -1.59194e-06 from=  1.00000e-08 to=  3.30002e-07
power_avg_uw        =  2.66483e+00


Total analysis time (seconds) = 3.61757

Total elapsed time (seconds) = 3.679 

Total DRAM available = 16384.000 MB.
DRAM currently available =   81.984 MB.
Maximum ngspice program size =   15.312 MB.
Current ngspice program size =   15.312 MB.

