
Note: No compatibility mode selected!


Circuit: GF180MCU library cell mux2_4 I0_to_Z__I1=0,S=0

Doing analysis at TEMP = -21.096845 and TNOM = 27.000000

Using SPARSE 1.3 as Direct Linear Solver

Initial Transient Solution
--------------------------

Node                                   Voltage
----                                   -------
vdd                                    1.76546
i0                                           0
i1                                           0
s                                            0
xu1.int04                              1.76546
z                                   1.3095e-08
xu1.net_1                          2.77581e-06
xu1.net_3                             0.989709
xu1.sel1_n                             1.76546
xu1.net_0                              1.76546
xu1.net_2                              1.76546
vfix_s#branch                                0
vfix_i1#branch                               0
vin#branch                                   0
vdd#branch                        -1.47147e-11

 Reference value :  3.31441e-08
 Reference value :  7.41841e-08
 Reference value :  1.14421e-07
 Reference value :  1.54096e-07
 Reference value :  1.90839e-07
 Reference value :  2.28789e-07
 Reference value :  2.68126e-07
 Reference value :  3.10351e-07
No. of Data Rows : 68030

  Measurements for Transient Analysis

tplh                =  4.73731e-09 targ=  3.07881e-08 trig=  2.60508e-08
tphl                =  4.92343e-09 targ=  1.05076e-07 trig=  1.00152e-07
i_vdd_avg           =  -2.31179e-06 from=  1.00000e-08 to=  3.30001e-07
power_avg_uw        =  4.08137e+00


Total analysis time (seconds) = 2.71414

Total elapsed time (seconds) = 2.776 

Total DRAM available = 16384.000 MB.
DRAM currently available =   82.281 MB.
Maximum ngspice program size =   17.469 MB.
Current ngspice program size =   17.469 MB.

