
Note: No compatibility mode selected!


Circuit: GF180MCU library cell aoi21_1 A1_to_ZN__A2=1,B=0

Doing analysis at TEMP = -37.012337 and TNOM = 27.000000

Using SPARSE 1.3 as Direct Linear Solver

Initial Transient Solution
--------------------------

Node                                   Voltage
----                                   -------
vdd                                    1.82108
a1                                           0
a2                                     1.82108
b                                            0
xu1.net_0                          1.15199e-11
zn                                     1.82108
xu1.net_1                              1.82108
vfix_b#branch                                0
vfix_a2#branch                               0
vin#branch                                   0
vdd#branch                        -3.66997e-12

 Reference value :  7.18532e-08
 Reference value :  1.83454e-07
 Reference value :  2.92294e-07
No. of Data Rows : 68032

  Measurements for Transient Analysis

tphl                =  2.16359e-09 targ=  2.77264e-08 trig=  2.55628e-08
tplh                =  4.78775e-09 targ=  1.03476e-07 trig=  9.86885e-08
i_vdd_avg           =  -1.20414e-06 from=  1.00000e-08 to=  3.30004e-07
power_avg_uw        =  2.19283e+00


Total analysis time (seconds) = 0.999772

Total elapsed time (seconds) = 1.092 

Total DRAM available = 16384.000 MB.
DRAM currently available =   96.641 MB.
Maximum ngspice program size =   18.391 MB.
Current ngspice program size =   18.391 MB.

