
Note: No compatibility mode selected!


Circuit: GF180MCU library cell oai21_4 A1_to_ZN__A2=0,B=1

Doing analysis at TEMP = 55.625168 and TNOM = 27.000000

Using SPARSE 1.3 as Direct Linear Solver

Initial Transient Solution
--------------------------

Node                                   Voltage
----                                   -------
vdd                                    1.73848
a1                                           0
a2                                           0
b                                      1.73848
zn                                     1.73848
xu1.net_0                          4.16123e-09
xu1.net_1_0                            1.73848
xu1.net_1_1                            1.73848
xu1.net_1_2                            1.73848
xu1.net_1_3                            1.73848
vfix_b#branch                                0
vfix_a2#branch                               0
vin#branch                                   0
vdd#branch                        -1.65763e-11

 Reference value :  2.45875e-08
 Reference value :  5.48714e-08
 Reference value :  8.50114e-08
 Reference value :  1.15935e-07
 Reference value :  1.42350e-07
 Reference value :  1.74065e-07
 Reference value :  2.05211e-07
 Reference value :  2.36911e-07
 Reference value :  2.67806e-07
 Reference value :  2.99665e-07
 Reference value :  3.31100e-07
No. of Data Rows : 68032

  Measurements for Transient Analysis

tphl                =  6.39733e-10 targ=  2.95967e-08 trig=  2.89569e-08
tplh                =  2.45856e-09 targ=  1.11329e-07 trig=  1.08871e-07
i_vdd_avg           =  -2.77618e-07 from=  1.00000e-08 to=  3.30000e-07
power_avg_uw        =  4.82634e-01


Total analysis time (seconds) = 3.52143

Total elapsed time (seconds) = 3.584 

Total DRAM available = 16384.000 MB.
DRAM currently available =   75.047 MB.
Maximum ngspice program size =   12.859 MB.
Current ngspice program size =   12.859 MB.

