
Note: No compatibility mode selected!


Circuit: GF180MCU library cell aoi21_1 A1_to_ZN__A2=1,B=0

Doing analysis at TEMP = 56.159467 and TNOM = 27.000000

Using SPARSE 1.3 as Direct Linear Solver

Initial Transient Solution
--------------------------

Node                                   Voltage
----                                   -------
vdd                                    1.94967
a1                                           0
a2                                     1.94967
b                                            0
xu1.net_0                          1.41685e-10
zn                                     1.94967
xu1.net_1                              1.94967
vfix_b#branch                                0
vfix_a2#branch                               0
vin#branch                                   0
vdd#branch                         -3.9616e-12

 Reference value :  1.04805e-07
 Reference value :  2.24375e-07
 Reference value :  3.31758e-07
No. of Data Rows : 68034

  Measurements for Transient Analysis

tphl                =  1.25235e-09 targ=  2.80212e-08 trig=  2.67689e-08
tplh                =  2.47888e-09 targ=  1.04785e-07 trig=  1.02307e-07
i_vdd_avg           =  -1.19251e-07 from=  1.00000e-08 to=  3.30003e-07
power_avg_uw        =  2.32501e-01


Total analysis time (seconds) = 0.97367

Total elapsed time (seconds) = 1.032 

Total DRAM available = 16384.000 MB.
DRAM currently available =  113.406 MB.
Maximum ngspice program size =   13.828 MB.
Current ngspice program size =   13.828 MB.

