
Note: No compatibility mode selected!


Circuit: GF180MCU library cell nor2_1 A1_to_ZN__A2=0

Doing analysis at TEMP = 41.882084 and TNOM = 27.000000

Using SPARSE 1.3 as Direct Linear Solver

Initial Transient Solution
--------------------------

Node                                   Voltage
----                                   -------
vdd                                    1.72005
a1                                           0
a2                                           0
zn                                     1.72005
xu1.net_0                              1.72005
vfix_a2#branch                               0
vin#branch                                   0
vdd#branch                        -9.77437e-12

 Reference value :  1.05531e-07
 Reference value :  2.54127e-07
No. of Data Rows : 68032

  Measurements for Transient Analysis

tphl                =  1.50515e-09 targ=  2.70347e-08 trig=  2.55296e-08
tplh                =  3.63746e-09 targ=  1.02226e-07 trig=  9.85887e-08
i_vdd_avg           =  -6.42719e-07 from=  1.00000e-08 to=  3.30001e-07
power_avg_uw        =  1.10551e+00


Total analysis time (seconds) = 0.773751

Total elapsed time (seconds) = 0.854 

Total DRAM available = 16384.000 MB.
DRAM currently available =   93.203 MB.
Maximum ngspice program size =   18.250 MB.
Current ngspice program size =   18.250 MB.

