
Note: No compatibility mode selected!


Circuit: GF180MCU library cell aoi21_1 A1_to_ZN__A2=1,B=0

Doing analysis at TEMP = 122.747030 and TNOM = 27.000000

Using SPARSE 1.3 as Direct Linear Solver

Initial Transient Solution
--------------------------

Node                                   Voltage
----                                   -------
vdd                                    1.97782
a1                                           0
a2                                     1.97782
b                                            0
xu1.net_0                          1.13056e-06
zn                                      1.9778
xu1.net_1                              1.97781
vfix_b#branch                                0
vfix_a2#branch                               0
vin#branch                                   0
vdd#branch                        -4.67769e-10

 Reference value :  7.05167e-08
 Reference value :  1.77356e-07
 Reference value :  2.73917e-07
No. of Data Rows : 68032

  Measurements for Transient Analysis

tphl                =  4.03475e-09 targ=  3.32844e-08 trig=  2.92496e-08
tplh                =  8.25071e-09 targ=  1.18000e-07 trig=  1.09749e-07
i_vdd_avg           =  -1.80026e-06 from=  1.00000e-08 to=  3.30001e-07
power_avg_uw        =  3.56059e+00


Total analysis time (seconds) = 1.10277

Total elapsed time (seconds) = 1.174 

Total DRAM available = 16384.000 MB.
DRAM currently available =  116.797 MB.
Maximum ngspice program size =   15.766 MB.
Current ngspice program size =   15.766 MB.

