
Note: No compatibility mode selected!


Circuit: GF180MCU library cell nand2_4 A1_to_ZN__A2=1

Doing analysis at TEMP = 117.038550 and TNOM = 27.000000

Using SPARSE 1.3 as Direct Linear Solver

Initial Transient Solution
--------------------------

Node                                   Voltage
----                                   -------
vdd                                    1.77348
a1                                           0
a2                                     1.77348
xu1.net_0_0                        8.22105e-08
zn                                     1.77348
xu1.net_0_1                        8.22105e-08
xu1.net_0_2                        8.22105e-08
xu1.net_0_3                        8.22105e-08
vfix_a2#branch                               0
vin#branch                                   0
vdd#branch                        -5.23818e-11

 Reference value :  3.13875e-08
 Reference value :  8.45889e-08
 Reference value :  1.33000e-07
 Reference value :  1.83315e-07
 Reference value :  2.30809e-07
 Reference value :  2.78630e-07
 Reference value :  3.28775e-07
No. of Data Rows : 68030

  Measurements for Transient Analysis

tphl                =  3.19870e-09 targ=  3.30494e-08 trig=  2.98507e-08
tplh                =  4.94943e-09 targ=  1.16501e-07 trig=  1.11552e-07
i_vdd_avg           =  -2.05817e-06 from=  1.00000e-08 to=  3.30000e-07
power_avg_uw        =  3.65012e+00


Total analysis time (seconds) = 2.25383

Total elapsed time (seconds) = 2.314 

Total DRAM available = 16384.000 MB.
DRAM currently available =  118.203 MB.
Maximum ngspice program size =   15.734 MB.
Current ngspice program size =   15.734 MB.

