
Note: No compatibility mode selected!


Circuit: GF180MCU library cell inv_1 I_to_ZN

Doing analysis at TEMP = -7.786745 and TNOM = 27.000000

Using SPARSE 1.3 as Direct Linear Solver

Initial Transient Solution
--------------------------

Node                                   Voltage
----                                   -------
vdd                                     1.6618
i                                            0
zn                                      1.6618
vin#branch                                   0
vdd#branch                        -1.73491e-12

 Reference value :  2.08029e-07
No. of Data Rows : 68030

  Measurements for Transient Analysis

tphl                =  3.28513e-09 targ=  2.99086e-08 trig=  2.66235e-08
tplh                =  6.44419e-09 targ=  1.08315e-07 trig=  1.01870e-07
i_vdd_avg           =  -2.15558e-06 from=  1.00000e-08 to=  3.30001e-07
power_avg_uw        =  3.58214e+00


Total analysis time (seconds) = 0.416158

Total elapsed time (seconds) = 0.495 

Total DRAM available = 16384.000 MB.
DRAM currently available =  109.594 MB.
Maximum ngspice program size =   18.250 MB.
Current ngspice program size =   18.250 MB.

