
Note: No compatibility mode selected!


Circuit: GF180MCU library cell mux2_1 I0_to_Z__I1=0,S=0

Doing analysis at TEMP = 65.797970 and TNOM = 27.000000

Using SPARSE 1.3 as Direct Linear Solver

Initial Transient Solution
--------------------------

Node                                   Voltage
----                                   -------
vdd                                    1.74609
i0                                           0
i1                                           0
s                                            0
xu1.int04                              1.74609
z                                  9.79599e-09
xu1.net_1                            0.0494871
xu1.net_3                              1.32366
xu1.sel1_n                             1.74609
xu1.net_0                              1.74609
xu1.net_2                              1.74609
vfix_s#branch                                0
vfix_i1#branch                               0
vin#branch                                   0
vdd#branch                        -7.98415e-11

 Reference value :  3.99218e-08
 Reference value :  9.48918e-08
 Reference value :  1.53066e-07
 Reference value :  2.12957e-07
 Reference value :  2.66857e-07
 Reference value :  3.26296e-07
No. of Data Rows : 68032

  Measurements for Transient Analysis

tplh                =  5.10456e-10 targ=  2.89551e-08 trig=  2.84447e-08
tphl                =  2.17559e-09 targ=  1.09510e-07 trig=  1.07334e-07
i_vdd_avg           =  -1.85838e-07 from=  1.00000e-08 to=  3.30001e-07
power_avg_uw        =  3.24490e-01


Total analysis time (seconds) = 1.94323

Total elapsed time (seconds) = 2.009 

Total DRAM available = 16384.000 MB.
DRAM currently available =   94.859 MB.
Maximum ngspice program size =   16.078 MB.
Current ngspice program size =   16.078 MB.

