
Note: No compatibility mode selected!


Circuit: GF180MCU library cell xor2_4 A1_to_Z__A2=0

Doing analysis at TEMP = 42.663599 and TNOM = 27.000000

Using SPARSE 1.3 as Direct Linear Solver

Initial Transient Solution
--------------------------

Node                                   Voltage
----                                   -------
vdd                                    1.96442
a1                                           0
a2                                           0
xu1.net_2                            0.0113966
xu1.i                                  1.96442
xu1.net_0                          9.32395e-11
xu1.z_neg                              1.96442
z                                  1.51213e-08
xu1.net_1                              1.96442
vfix_a2#branch                               0
vin#branch                                   0
vdd#branch                        -1.42017e-11

 Reference value :  3.80731e-08
 Reference value :  8.00781e-08
 Reference value :  1.23629e-07
 Reference value :  1.64044e-07
 Reference value :  2.04558e-07
 Reference value :  2.46653e-07
 Reference value :  2.88639e-07
 Reference value :  3.31949e-07
No. of Data Rows : 68032

  Measurements for Transient Analysis

tplh                =  3.35173e-09 targ=  3.26970e-08 trig=  2.93453e-08
tphl                =  5.27245e-09 targ=  1.15308e-07 trig=  1.10036e-07
i_vdd_avg           =  -1.11623e-06 from=  1.00000e-08 to=  3.30004e-07
power_avg_uw        =  2.19274e+00


Total analysis time (seconds) = 2.51255

Total elapsed time (seconds) = 2.575 

Total DRAM available = 16384.000 MB.
DRAM currently available =  121.734 MB.
Maximum ngspice program size =   13.750 MB.
Current ngspice program size =   13.750 MB.

