
Note: No compatibility mode selected!


Circuit: GF180MCU library cell nand3_4 A1_to_ZN__A2=1,A3=1

Doing analysis at TEMP = 84.543037 and TNOM = 27.000000

Using SPARSE 1.3 as Direct Linear Solver

Initial Transient Solution
--------------------------

Node                                   Voltage
----                                   -------
vdd                                    1.90384
a1                                           0
a2                                     1.90384
a3                                     1.90384
xu1.net_1_3                        1.12903e-09
xu1.net_0                          2.25806e-09
xu1.net_1_2                        1.12903e-09
xu1.net_1_1                        1.12903e-09
xu1.net_1_0                        1.12903e-09
xu1.net_0_0                        2.25806e-09
zn                                     1.90384
vfix_a3#branch                               0
vfix_a2#branch                               0
vin#branch                                   0
vdd#branch                        -8.18051e-12

 Reference value :  2.80075e-08
 Reference value :  5.81770e-08
 Reference value :  8.94070e-08
 Reference value :  1.20852e-07
 Reference value :  1.49142e-07
 Reference value :  1.78862e-07
 Reference value :  2.10627e-07
 Reference value :  2.41812e-07
 Reference value :  2.72857e-07
 Reference value :  3.03177e-07
 Reference value :  3.33597e-07
No. of Data Rows : 68032

  Measurements for Transient Analysis

tphl                =  3.45927e-09 targ=  3.21715e-08 trig=  2.87123e-08
tplh                =  4.60996e-09 targ=  1.12747e-07 trig=  1.08137e-07
i_vdd_avg           =  -1.31921e-06 from=  1.00000e-08 to=  3.30002e-07
power_avg_uw        =  2.51156e+00


Total analysis time (seconds) = 3.68456

Total elapsed time (seconds) = 3.749 

Total DRAM available = 16384.000 MB.
DRAM currently available =   89.688 MB.
Maximum ngspice program size =   14.250 MB.
Current ngspice program size =   14.250 MB.

