
Note: No compatibility mode selected!


Circuit: GF180MCU library cell nand2_1 A1_to_ZN__A2=1

Doing analysis at TEMP = 105.679320 and TNOM = 27.000000

Using SPARSE 1.3 as Direct Linear Solver

Initial Transient Solution
--------------------------

Node                                   Voltage
----                                   -------
vdd                                    1.89425
a1                                           0
a2                                     1.89425
xu1.net_0                          4.31339e-09
zn                                     1.89425
vfix_a2#branch                               0
vin#branch                                   0
vdd#branch                        -2.37701e-12

 Reference value :  1.25155e-07
 Reference value :  2.81915e-07
No. of Data Rows : 68032

  Measurements for Transient Analysis

tphl                =  6.92502e-09 targ=  3.33305e-08 trig=  2.64055e-08
tplh                =  9.66052e-09 targ=  1.10877e-07 trig=  1.01217e-07
i_vdd_avg           =  -1.71692e-06 from=  1.00000e-08 to=  3.30005e-07
power_avg_uw        =  3.25227e+00


Total analysis time (seconds) = 0.675842

Total elapsed time (seconds) = 0.731 

Total DRAM available = 16384.000 MB.
DRAM currently available =  183.672 MB.
Maximum ngspice program size =   16.250 MB.
Current ngspice program size =   16.250 MB.

