
Note: No compatibility mode selected!


Circuit: GF180MCU library cell inv_4 I_to_ZN

Doing analysis at TEMP = 90.394850 and TNOM = 27.000000

Using SPARSE 1.3 as Direct Linear Solver

Initial Transient Solution
--------------------------

Node                                   Voltage
----                                   -------
vdd                                    1.95482
i                                            0
zn                                     1.95482
vin#branch                                   0
vdd#branch                        -2.00752e-11

 Reference value :  6.58757e-08
 Reference value :  1.73714e-07
 Reference value :  2.83404e-07
No. of Data Rows : 68034

  Measurements for Transient Analysis

tphl                =  3.09058e-10 targ=  2.44456e-08 trig=  2.41366e-08
tplh                =  6.12378e-10 targ=  9.50221e-08 trig=  9.44098e-08
i_vdd_avg           =  -8.53730e-07 from=  1.00000e-08 to=  3.30004e-07
power_avg_uw        =  1.66889e+00


Total analysis time (seconds) = 1.09007

Total elapsed time (seconds) = 1.184 

Total DRAM available = 16384.000 MB.
DRAM currently available =   96.031 MB.
Maximum ngspice program size =   15.391 MB.
Current ngspice program size =   15.391 MB.

