
Note: No compatibility mode selected!


Circuit: GF180MCU library cell oai21_1 A1_to_ZN__A2=0,B=1

Doing analysis at TEMP = 85.810178 and TNOM = 27.000000

Using SPARSE 1.3 as Direct Linear Solver

Initial Transient Solution
--------------------------

Node                                   Voltage
----                                   -------
vdd                                    1.86352
a1                                           0
a2                                           0
b                                      1.86352
zn                                     1.86352
xu1.net_0                          2.49345e-09
xu1.net_1                              1.86352
vfix_b#branch                                0
vfix_a2#branch                               0
vin#branch                                   0
vdd#branch                        -4.02758e-12

 Reference value :  6.80471e-08
 Reference value :  1.64082e-07
 Reference value :  2.69827e-07
No. of Data Rows : 68032

  Measurements for Transient Analysis

tphl                =  4.13925e-09 targ=  3.27040e-08 trig=  2.85648e-08
tplh                =  8.11928e-09 targ=  1.15814e-07 trig=  1.07694e-07
i_vdd_avg           =  -5.78246e-07 from=  1.00000e-08 to=  3.30002e-07
power_avg_uw        =  1.07758e+00


Total analysis time (seconds) = 1.11659

Total elapsed time (seconds) = 1.184 

Total DRAM available = 16384.000 MB.
DRAM currently available =  120.594 MB.
Maximum ngspice program size =   16.391 MB.
Current ngspice program size =   16.391 MB.

