
Note: No compatibility mode selected!


Circuit: GF180MCU library cell mux2_1 I0_to_Z__I1=0,S=0

Doing analysis at TEMP = 63.272257 and TNOM = 27.000000

Using SPARSE 1.3 as Direct Linear Solver

Initial Transient Solution
--------------------------

Node                                   Voltage
----                                   -------
vdd                                    1.71488
i0                                           0
i1                                           0
s                                            0
xu1.int04                              1.71488
z                                    1.211e-08
xu1.net_1                            0.0412905
xu1.net_3                              1.26297
xu1.sel1_n                             1.71488
xu1.net_0                              1.71488
xu1.net_2                              1.71488
vfix_s#branch                                0
vfix_i1#branch                               0
vin#branch                                   0
vdd#branch                        -1.42748e-11

 Reference value :  4.03773e-08
 Reference value :  9.64323e-08
 Reference value :  1.50792e-07
 Reference value :  2.08547e-07
 Reference value :  2.61092e-07
 Reference value :  3.16732e-07
No. of Data Rows : 68032

  Measurements for Transient Analysis

tplh                =  7.46481e-09 targ=  3.51697e-08 trig=  2.77049e-08
tphl                =  5.47308e-09 targ=  1.10588e-07 trig=  1.05115e-07
i_vdd_avg           =  -1.86615e-06 from=  1.00000e-08 to=  3.30002e-07
power_avg_uw        =  3.20022e+00


Total analysis time (seconds) = 2.01203

Total elapsed time (seconds) = 2.079 

Total DRAM available = 16384.000 MB.
DRAM currently available =   87.844 MB.
Maximum ngspice program size =   14.281 MB.
Current ngspice program size =   14.281 MB.

