
Note: No compatibility mode selected!


Circuit: GF180MCU library cell inv_1 I_to_ZN

Doing analysis at TEMP = -32.400074 and TNOM = 27.000000

Using SPARSE 1.3 as Direct Linear Solver

Initial Transient Solution
--------------------------

Node                                   Voltage
----                                   -------
vdd                                    1.69173
i                                            0
zn                                     1.69173
vin#branch                                   0
vdd#branch                        -1.70182e-12

 Reference value :  1.80259e-07
No. of Data Rows : 68034

  Measurements for Transient Analysis

tphl                =  3.21283e-09 targ=  2.96445e-08 trig=  2.64316e-08
tplh                =  6.39647e-09 targ=  1.07691e-07 trig=  1.01295e-07
i_vdd_avg           =  -1.42627e-06 from=  1.00000e-08 to=  3.30004e-07
power_avg_uw        =  2.41286e+00


Total analysis time (seconds) = 0.457597

Total elapsed time (seconds) = 0.540 

Total DRAM available = 16384.000 MB.
DRAM currently available =  145.141 MB.
Maximum ngspice program size =   17.719 MB.
Current ngspice program size =   17.719 MB.

