
Note: No compatibility mode selected!


Circuit: GF180MCU library cell inv_4 I_to_ZN

Doing analysis at TEMP = 110.207630 and TNOM = 27.000000

Using SPARSE 1.3 as Direct Linear Solver

Initial Transient Solution
--------------------------

Node                                   Voltage
----                                   -------
vdd                                    1.84586
i                                            0
zn                                     1.84586
vin#branch                                   0
vdd#branch                        -9.82502e-12

 Reference value :  7.84224e-08
 Reference value :  1.79397e-07
 Reference value :  2.77922e-07
No. of Data Rows : 68032

  Measurements for Transient Analysis

tphl                =  2.50727e-09 targ=  2.92672e-08 trig=  2.67599e-08
tplh                =  4.28825e-09 targ=  1.06568e-07 trig=  1.02280e-07
i_vdd_avg           =  -2.19026e-06 from=  1.00000e-08 to=  3.30002e-07
power_avg_uw        =  4.04290e+00


Total analysis time (seconds) = 1.05094

Total elapsed time (seconds) = 1.111 

Total DRAM available = 16384.000 MB.
DRAM currently available =  106.781 MB.
Maximum ngspice program size =   13.188 MB.
Current ngspice program size =   12.844 MB.

