
Note: No compatibility mode selected!


Circuit: GF180MCU library cell xor2_4 A1_to_Z__A2=0

Doing analysis at TEMP = 21.648126 and TNOM = 27.000000

Using SPARSE 1.3 as Direct Linear Solver

Initial Transient Solution
--------------------------

Node                                   Voltage
----                                   -------
vdd                                    1.76599
a1                                           0
a2                                           0
xu1.net_2                            0.0196656
xu1.i                                  1.76599
xu1.net_0                          2.81472e-10
xu1.z_neg                              1.76599
z                                  1.06925e-08
xu1.net_1                              1.76599
vfix_a2#branch                               0
vin#branch                                   0
vdd#branch                        -1.28955e-11

 Reference value :  2.45725e-08
 Reference value :  6.66474e-08
 Reference value :  1.06822e-07
 Reference value :  1.48947e-07
 Reference value :  1.88748e-07
 Reference value :  2.31417e-07
 Reference value :  2.75337e-07
 Reference value :  3.17587e-07
No. of Data Rows : 68032

  Measurements for Transient Analysis

tplh                =  1.82361e-09 targ=  2.92560e-08 trig=  2.74324e-08
tphl                =  3.25101e-09 targ=  1.07548e-07 trig=  1.04297e-07
i_vdd_avg           =  -4.23285e-07 from=  1.00000e-08 to=  3.30002e-07
power_avg_uw        =  7.47517e-01


Total analysis time (seconds) = 2.62395

Total elapsed time (seconds) = 2.716 

Total DRAM available = 16384.000 MB.
DRAM currently available =  121.734 MB.
Maximum ngspice program size =   16.797 MB.
Current ngspice program size =   16.797 MB.

