
Note: No compatibility mode selected!


Circuit: GF180MCU library cell mux2_4 I0_to_Z__I1=0,S=0

Doing analysis at TEMP = 79.525130 and TNOM = 27.000000

Using SPARSE 1.3 as Direct Linear Solver

Initial Transient Solution
--------------------------

Node                                   Voltage
----                                   -------
vdd                                    1.94747
i0                                           0
i1                                           0
s                                            0
xu1.int04                              1.94747
z                                   1.2336e-08
xu1.net_1                            0.0411215
xu1.net_3                              1.40801
xu1.sel1_n                             1.94747
xu1.net_0                              1.94747
xu1.net_2                              1.94747
vfix_s#branch                                0
vfix_i1#branch                               0
vin#branch                                   0
vdd#branch                        -2.03303e-11

 Reference value :  3.33774e-08
 Reference value :  7.47274e-08
 Reference value :  1.12547e-07
 Reference value :  1.53082e-07
 Reference value :  1.90407e-07
 Reference value :  2.29427e-07
 Reference value :  2.69777e-07
 Reference value :  3.08382e-07
No. of Data Rows : 68032

  Measurements for Transient Analysis

tplh                =  1.34698e-09 targ=  2.61744e-08 trig=  2.48274e-08
tphl                =  1.90258e-09 targ=  9.83849e-08 trig=  9.64823e-08
i_vdd_avg           =  -9.07117e-07 from=  1.00000e-08 to=  3.30002e-07
power_avg_uw        =  1.76658e+00


Total analysis time (seconds) = 2.72828

Total elapsed time (seconds) = 2.796 

Total DRAM available = 16384.000 MB.
DRAM currently available =   75.609 MB.
Maximum ngspice program size =   16.844 MB.
Current ngspice program size =   16.844 MB.

