
Note: No compatibility mode selected!


Circuit: GF180MCU library cell nand3_4 A1_to_ZN__A2=1,A3=1

Doing analysis at TEMP = 69.203762 and TNOM = 27.000000

Using SPARSE 1.3 as Direct Linear Solver

Initial Transient Solution
--------------------------

Node                                   Voltage
----                                   -------
vdd                                    1.65212
a1                                           0
a2                                     1.65212
a3                                     1.65212
xu1.net_1_3                        8.08864e-08
xu1.net_0                          1.61773e-07
xu1.net_1_2                        8.08864e-08
xu1.net_1_1                        8.08864e-08
xu1.net_1_0                        8.08864e-08
xu1.net_0_0                        1.61773e-07
zn                                     1.65212
vfix_a3#branch                               0
vfix_a2#branch                               0
vin#branch                                   0
vdd#branch                        -6.81715e-11

 Reference value :  2.48175e-08
 Reference value :  5.43495e-08
 Reference value :  8.48045e-08
 Reference value :  1.14052e-07
 Reference value :  1.45137e-07
 Reference value :  1.74252e-07
 Reference value :  2.05435e-07
 Reference value :  2.37565e-07
 Reference value :  2.67237e-07
 Reference value :  2.97737e-07
 Reference value :  3.26582e-07
No. of Data Rows : 68030

  Measurements for Transient Analysis

tphl                =  1.76041e-09 targ=  2.80889e-08 trig=  2.63285e-08
tplh                =  2.34309e-09 targ=  1.03329e-07 trig=  1.00986e-07
i_vdd_avg           =  -1.42204e-06 from=  1.00000e-08 to=  3.30002e-07
power_avg_uw        =  2.34939e+00


Total analysis time (seconds) = 3.81168

Total elapsed time (seconds) = 3.879 

Total DRAM available = 16384.000 MB.
DRAM currently available =   83.562 MB.
Maximum ngspice program size =   16.078 MB.
Current ngspice program size =   16.078 MB.

