
Note: No compatibility mode selected!


Circuit: GF180MCU library cell xor2_4 A1_to_Z__A2=0

Doing analysis at TEMP = -23.974860 and TNOM = 27.000000

Using SPARSE 1.3 as Direct Linear Solver

Initial Transient Solution
--------------------------

Node                                   Voltage
----                                   -------
vdd                                    1.88948
a1                                           0
a2                                           0
xu1.net_2                          0.000821899
xu1.i                                  1.88948
xu1.net_0                           2.3906e-12
xu1.z_neg                              1.88948
z                                  9.08819e-09
xu1.net_1                              1.88948
vfix_a2#branch                               0
vin#branch                                   0
vdd#branch                        -1.36781e-11

 Reference value :  4.00919e-08
 Reference value :  9.14519e-08
 Reference value :  1.34476e-07
 Reference value :  1.79031e-07
 Reference value :  2.23652e-07
 Reference value :  2.63146e-07
 Reference value :  3.04456e-07
No. of Data Rows : 68032

  Measurements for Transient Analysis

tplh                =  1.23771e-09 targ=  2.65624e-08 trig=  2.53247e-08
tphl                =  1.90809e-09 targ=  9.98822e-08 trig=  9.79741e-08
i_vdd_avg           =  -5.61983e-07 from=  1.00000e-08 to=  3.30001e-07
power_avg_uw        =  1.06186e+00


Total analysis time (seconds) = 2.45727

Total elapsed time (seconds) = 2.524 

Total DRAM available = 16384.000 MB.
DRAM currently available =  120.859 MB.
Maximum ngspice program size =   14.328 MB.
Current ngspice program size =   14.328 MB.

