
Note: No compatibility mode selected!


Circuit: GF180MCU library cell oai21_4 A1_to_ZN__A2=0,B=1

Doing analysis at TEMP = 106.308940 and TNOM = 27.000000

Using SPARSE 1.3 as Direct Linear Solver

Initial Transient Solution
--------------------------

Node                                   Voltage
----                                   -------
vdd                                    1.91335
a1                                           0
a2                                           0
b                                      1.91335
zn                                     1.91335
xu1.net_0                          9.10522e-08
xu1.net_1_0                            1.91335
xu1.net_1_1                            1.91335
xu1.net_1_2                            1.91335
xu1.net_1_3                            1.91335
vfix_b#branch                                0
vfix_a2#branch                               0
vin#branch                                   0
vdd#branch                        -7.16557e-11

 Reference value :  2.21864e-08
 Reference value :  5.04588e-08
 Reference value :  8.24538e-08
 Reference value :  1.12240e-07
 Reference value :  1.41070e-07
 Reference value :  1.72740e-07
 Reference value :  2.04489e-07
 Reference value :  2.35069e-07
 Reference value :  2.66945e-07
 Reference value :  2.98090e-07
 Reference value :  3.28005e-07
No. of Data Rows : 68030

  Measurements for Transient Analysis

tphl                =  2.35326e-09 targ=  2.90489e-08 trig=  2.66956e-08
tplh                =  5.08707e-09 targ=  1.07174e-07 trig=  1.02087e-07
i_vdd_avg           =  -2.45913e-06 from=  1.00000e-08 to=  3.30000e-07
power_avg_uw        =  4.70517e+00


Total analysis time (seconds) = 3.65137

Total elapsed time (seconds) = 3.712 

Total DRAM available = 16384.000 MB.
DRAM currently available =   97.953 MB.
Maximum ngspice program size =   13.797 MB.
Current ngspice program size =   13.797 MB.

