
Note: No compatibility mode selected!


Circuit: GF180MCU library cell inv_1 I_to_ZN

Doing analysis at TEMP = 46.716960 and TNOM = 27.000000

Using SPARSE 1.3 as Direct Linear Solver

Initial Transient Solution
--------------------------

Node                                   Voltage
----                                   -------
vdd                                    1.65112
i                                            0
zn                                     1.65112
vin#branch                                   0
vdd#branch                        -1.82696e-12

 Reference value :  2.17333e-07
No. of Data Rows : 68032

  Measurements for Transient Analysis

tphl                =  4.35955e-09 targ=  3.28125e-08 trig=  2.84530e-08
tplh                =  7.90600e-09 targ=  1.15265e-07 trig=  1.07359e-07
i_vdd_avg           =  -1.30056e-06 from=  1.00000e-08 to=  3.30004e-07
power_avg_uw        =  2.14737e+00


Total analysis time (seconds) = 0.403164

Total elapsed time (seconds) = 0.486 

Total DRAM available = 16384.000 MB.
DRAM currently available =   74.906 MB.
Maximum ngspice program size =   16.125 MB.
Current ngspice program size =   16.125 MB.

