
Note: No compatibility mode selected!


Circuit: GF180MCU library cell nand2_1 A1_to_ZN__A2=1

Doing analysis at TEMP = 88.645544 and TNOM = 27.000000

Using SPARSE 1.3 as Direct Linear Solver

Initial Transient Solution
--------------------------

Node                                   Voltage
----                                   -------
vdd                                    1.76912
a1                                           0
a2                                     1.76912
xu1.net_0                          1.56176e-09
zn                                     1.76912
vfix_a2#branch                               0
vin#branch                                   0
vdd#branch                        -1.94106e-12

 Reference value :  1.15885e-07
 Reference value :  2.78780e-07
No. of Data Rows : 68034

  Measurements for Transient Analysis

tphl                =  6.06726e-09 targ=  3.23490e-08 trig=  2.62818e-08
tplh                =  8.72336e-09 targ=  1.09569e-07 trig=  1.00845e-07
i_vdd_avg           =  -1.22417e-06 from=  1.00000e-08 to=  3.30005e-07
power_avg_uw        =  2.16570e+00


Total analysis time (seconds) = 0.66692

Total elapsed time (seconds) = 0.754 

Total DRAM available = 16384.000 MB.
DRAM currently available =  183.672 MB.
Maximum ngspice program size =   17.969 MB.
Current ngspice program size =   17.969 MB.

