
Note: No compatibility mode selected!


Circuit: GF180MCU library cell inv_1 I_to_ZN

Doing analysis at TEMP = 5.686963 and TNOM = 27.000000

Using SPARSE 1.3 as Direct Linear Solver

Initial Transient Solution
--------------------------

Node                                   Voltage
----                                   -------
vdd                                    1.85837
i                                            0
zn                                     1.85837
vin#branch                                   0
vdd#branch                        -1.87445e-12

 Reference value :  1.99095e-07
No. of Data Rows : 68030

  Measurements for Transient Analysis

tphl                =  1.76798e-09 targ=  2.59391e-08 trig=  2.41711e-08
tplh                =  4.07835e-09 targ=  9.85916e-08 trig=  9.45133e-08
i_vdd_avg           =  -1.51875e-06 from=  1.00000e-08 to=  3.30002e-07
power_avg_uw        =  2.82240e+00


Total analysis time (seconds) = 0.468312

Total elapsed time (seconds) = 0.545 

Total DRAM available = 16384.000 MB.
DRAM currently available =  109.594 MB.
Maximum ngspice program size =   16.875 MB.
Current ngspice program size =   16.875 MB.

