
Note: No compatibility mode selected!


Circuit: GF180MCU library cell oai21_4 A1_to_ZN__A2=0,B=1

Doing analysis at TEMP = 19.031666 and TNOM = 27.000000

Using SPARSE 1.3 as Direct Linear Solver

Initial Transient Solution
--------------------------

Node                                   Voltage
----                                   -------
vdd                                    1.90842
a1                                           0
a2                                           0
b                                      1.90842
zn                                     1.90842
xu1.net_0                          1.07602e-11
xu1.net_1_0                            1.90842
xu1.net_1_1                            1.90842
xu1.net_1_2                            1.90842
xu1.net_1_3                            1.90842
vfix_b#branch                                0
vfix_a2#branch                               0
vin#branch                                   0
vdd#branch                        -1.53534e-11

 Reference value :  2.53225e-08
 Reference value :  5.49338e-08
 Reference value :  8.72638e-08
 Reference value :  1.14375e-07
 Reference value :  1.44720e-07
 Reference value :  1.75770e-07
 Reference value :  2.07884e-07
 Reference value :  2.38594e-07
 Reference value :  2.70375e-07
 Reference value :  3.02580e-07
 Reference value :  3.33035e-07
No. of Data Rows : 68030

  Measurements for Transient Analysis

tphl                =  2.66430e-09 targ=  2.83725e-08 trig=  2.57082e-08
tplh                =  6.79500e-09 targ=  1.05919e-07 trig=  9.91245e-08
i_vdd_avg           =  -2.48143e-06 from=  1.00000e-08 to=  3.30000e-07
power_avg_uw        =  4.73562e+00


Total analysis time (seconds) = 3.60526

Total elapsed time (seconds) = 3.677 

Total DRAM available = 16384.000 MB.
DRAM currently available =  109.234 MB.
Maximum ngspice program size =   16.406 MB.
Current ngspice program size =   16.406 MB.

