
Note: No compatibility mode selected!


Circuit: GF180MCU library cell inv_1 I_to_ZN

Doing analysis at TEMP = 112.360290 and TNOM = 27.000000

Using SPARSE 1.3 as Direct Linear Solver

Initial Transient Solution
--------------------------

Node                                   Voltage
----                                   -------
vdd                                    1.70419
i                                            0
zn                                     1.70418
vin#branch                                   0
vdd#branch                        -1.32618e-10

 Reference value :  1.95850e-07
No. of Data Rows : 68030

  Measurements for Transient Analysis

tphl                =  3.47119e-10 targ=  2.51583e-08 trig=  2.48112e-08
tplh                =  6.97495e-10 targ=  9.71310e-08 trig=  9.64335e-08
i_vdd_avg           =  -1.26535e-07 from=  1.00000e-08 to=  3.30002e-07
power_avg_uw        =  2.15639e-01


Total analysis time (seconds) = 0.434524

Total elapsed time (seconds) = 0.540 

Total DRAM available = 16384.000 MB.
DRAM currently available =  119.484 MB.
Maximum ngspice program size =   18.531 MB.
Current ngspice program size =   18.531 MB.

