
Note: No compatibility mode selected!


Circuit: GF180MCU library cell mux2_1 I0_to_Z__I1=0,S=0

Doing analysis at TEMP = 102.377950 and TNOM = 27.000000

Using SPARSE 1.3 as Direct Linear Solver

Initial Transient Solution
--------------------------

Node                                   Voltage
----                                   -------
vdd                                    1.76451
i0                                           0
i1                                           0
s                                            0
xu1.int04                               1.7645
z                                  1.39321e-08
xu1.net_1                            0.0482298
xu1.net_3                              1.31928
xu1.sel1_n                             1.76451
xu1.net_0                              1.76451
xu1.net_2                              1.76451
vfix_s#branch                                0
vfix_i1#branch                               0
vin#branch                                   0
vdd#branch                         -4.7911e-11

 Reference value :  4.02338e-08
 Reference value :  9.50788e-08
 Reference value :  1.52940e-07
 Reference value :  2.11769e-07
 Reference value :  2.68310e-07
 Reference value :  3.23140e-07
No. of Data Rows : 68030

  Measurements for Transient Analysis

tplh                =  3.01137e-09 targ=  2.89120e-08 trig=  2.59007e-08
tphl                =  2.95006e-09 targ=  1.02652e-07 trig=  9.97020e-08
i_vdd_avg           =  -7.02506e-07 from=  1.00000e-08 to=  3.30000e-07
power_avg_uw        =  1.23958e+00


Total analysis time (seconds) = 1.90183

Total elapsed time (seconds) = 1.964 

Total DRAM available = 16384.000 MB.
DRAM currently available =   79.969 MB.
Maximum ngspice program size =   15.766 MB.
Current ngspice program size =   15.766 MB.

