
Note: No compatibility mode selected!


Circuit: GF180MCU library cell inv_4 I_to_ZN

Doing analysis at TEMP = 114.082920 and TNOM = 27.000000

Using SPARSE 1.3 as Direct Linear Solver

Initial Transient Solution
--------------------------

Node                                   Voltage
----                                   -------
vdd                                    1.89025
i                                            0
zn                                     1.89025
vin#branch                                   0
vdd#branch                        -1.06279e-11

 Reference value :  5.77848e-08
 Reference value :  1.51952e-07
 Reference value :  2.52370e-07
No. of Data Rows : 68030

  Measurements for Transient Analysis

tphl                =  1.58287e-09 targ=  2.74940e-08 trig=  2.59112e-08
tplh                =  2.64614e-09 targ=  1.02380e-07 trig=  9.97335e-08
i_vdd_avg           =  -1.35670e-06 from=  1.00000e-08 to=  3.30002e-07
power_avg_uw        =  2.56450e+00


Total analysis time (seconds) = 1.36498

Total elapsed time (seconds) = 1.450 

Total DRAM available = 16384.000 MB.
DRAM currently available =  109.328 MB.
Maximum ngspice program size =   17.625 MB.
Current ngspice program size =   17.625 MB.

