
Note: No compatibility mode selected!


Circuit: GF180MCU library cell xor2_1 A1_to_Z__A2=0

Doing analysis at TEMP = 61.252749 and TNOM = 27.000000

Using SPARSE 1.3 as Direct Linear Solver

Initial Transient Solution
--------------------------

Node                                   Voltage
----                                   -------
vdd                                    1.84407
a1                                           0
a2                                           0
xu1.i                                  1.84407
z                                  3.45958e-08
xu1.net_0                          1.70318e-08
xu1.net_2                              1.84407
xu1.net_1                             0.594172
vfix_a2#branch                               0
vin#branch                                   0
vdd#branch                        -6.94451e-11

 Reference value :  4.85183e-08
 Reference value :  1.22929e-07
 Reference value :  1.94413e-07
 Reference value :  2.65858e-07
 Reference value :  3.38614e-07
No. of Data Rows : 68032

  Measurements for Transient Analysis

tplh                =  1.73773e-09 targ=  2.89931e-08 trig=  2.72554e-08
tphl                =  2.10341e-09 targ=  1.05870e-07 trig=  1.03766e-07
i_vdd_avg           =  -5.24999e-07 from=  1.00000e-08 to=  3.30004e-07
power_avg_uw        =  9.68135e-01


Total analysis time (seconds) = 1.50684

Total elapsed time (seconds) = 1.579 

Total DRAM available = 16384.000 MB.
DRAM currently available =  100.250 MB.
Maximum ngspice program size =   17.016 MB.
Current ngspice program size =   17.016 MB.

