
Note: No compatibility mode selected!


Circuit: GF180MCU library cell xor2_4 A1_to_Z__A2=0

Doing analysis at TEMP = 114.111440 and TNOM = 27.000000

Using SPARSE 1.3 as Direct Linear Solver

Initial Transient Solution
--------------------------

Node                                   Voltage
----                                   -------
vdd                                    1.82472
a1                                           0
a2                                           0
xu1.net_2                            0.0411657
xu1.i                                  1.82472
xu1.net_0                          1.44954e-08
xu1.z_neg                              1.82472
z                                  1.88891e-08
xu1.net_1                              1.82472
vfix_a2#branch                               0
vin#branch                                   0
vdd#branch                        -1.57948e-11

 Reference value :  2.64950e-08
 Reference value :  6.85650e-08
 Reference value :  1.11107e-07
 Reference value :  1.51167e-07
 Reference value :  1.94530e-07
 Reference value :  2.37995e-07
 Reference value :  2.80557e-07
 Reference value :  3.22197e-07
No. of Data Rows : 68030

  Measurements for Transient Analysis

tplh                =  3.17215e-09 targ=  2.79884e-08 trig=  2.48162e-08
tphl                =  3.89735e-09 targ=  1.00346e-07 trig=  9.64487e-08
i_vdd_avg           =  -1.56292e-06 from=  1.00000e-08 to=  3.30002e-07
power_avg_uw        =  2.85190e+00


Total analysis time (seconds) = 2.58963

Total elapsed time (seconds) = 2.665 

Total DRAM available = 16384.000 MB.
DRAM currently available =  121.734 MB.
Maximum ngspice program size =   17.094 MB.
Current ngspice program size =   17.094 MB.

