
Note: No compatibility mode selected!


Circuit: GF180MCU library cell mux2_4 I0_to_Z__I1=0,S=0

Doing analysis at TEMP = 44.999169 and TNOM = 27.000000

Using SPARSE 1.3 as Direct Linear Solver

Initial Transient Solution
--------------------------

Node                                   Voltage
----                                   -------
vdd                                    1.95672
i0                                           0
i1                                           0
s                                            0
xu1.int04                              1.95672
z                                  8.66105e-09
xu1.net_1                            0.0457953
xu1.net_3                              1.46093
xu1.sel1_n                             1.95672
xu1.net_0                              1.95672
xu1.net_2                              1.95672
vfix_s#branch                                0
vfix_i1#branch                               0
vin#branch                                   0
vdd#branch                        -2.55854e-11

 Reference value :  3.56420e-08
 Reference value :  7.83820e-08
 Reference value :  1.17607e-07
 Reference value :  1.57497e-07
 Reference value :  1.94612e-07
 Reference value :  2.31882e-07
 Reference value :  2.70302e-07
 Reference value :  3.10742e-07
No. of Data Rows : 68032

  Measurements for Transient Analysis

tplh                =  1.22148e-09 targ=  2.91962e-08 trig=  2.79748e-08
tphl                =  2.37895e-09 targ=  1.08303e-07 trig=  1.05924e-07
i_vdd_avg           =  -1.51146e-06 from=  1.00000e-08 to=  3.30002e-07
power_avg_uw        =  2.95751e+00


Total analysis time (seconds) = 2.678

Total elapsed time (seconds) = 2.753 

Total DRAM available = 16384.000 MB.
DRAM currently available =   68.219 MB.
Maximum ngspice program size =   15.656 MB.
Current ngspice program size =   15.656 MB.

