
Note: No compatibility mode selected!


Circuit: GF180MCU library cell oai21_1 A1_to_ZN__A2=0,B=1

Doing analysis at TEMP = 56.523731 and TNOM = 27.000000

Using SPARSE 1.3 as Direct Linear Solver

Initial Transient Solution
--------------------------

Node                                   Voltage
----                                   -------
vdd                                    1.66373
a1                                           0
a2                                           0
b                                      1.66373
zn                                     1.66373
xu1.net_0                          4.54119e-09
xu1.net_1                              1.66373
vfix_b#branch                                0
vfix_a2#branch                               0
vin#branch                                   0
vdd#branch                        -4.01157e-12

 Reference value :  1.01279e-07
 Reference value :  2.16859e-07
 Reference value :  3.20910e-07
No. of Data Rows : 68030

  Measurements for Transient Analysis

tphl                =  6.31232e-09 targ=  3.58230e-08 trig=  2.95107e-08
tplh                =  1.38600e-08 targ=  1.24392e-07 trig=  1.10532e-07
i_vdd_avg           =  -1.31771e-06 from=  1.00000e-08 to=  3.30000e-07
power_avg_uw        =  2.19231e+00


Total analysis time (seconds) = 0.844883

Total elapsed time (seconds) = 0.909 

Total DRAM available = 16384.000 MB.
DRAM currently available =  125.078 MB.
Maximum ngspice program size =   15.234 MB.
Current ngspice program size =   15.234 MB.

