
Note: No compatibility mode selected!


Circuit: GF180MCU library cell nor2_1 A1_to_ZN__A2=0

Doing analysis at TEMP = 18.549338 and TNOM = 27.000000

Using SPARSE 1.3 as Direct Linear Solver

Initial Transient Solution
--------------------------

Node                                   Voltage
----                                   -------
vdd                                     1.7982
a1                                           0
a2                                           0
zn                                      1.7982
xu1.net_0                               1.7982
vfix_a2#branch                               0
vin#branch                                   0
vdd#branch                        -3.61801e-12

 Reference value :  1.16577e-07
 Reference value :  2.65477e-07
No. of Data Rows : 68032

  Measurements for Transient Analysis

tphl                =  6.08889e-09 targ=  3.20437e-08 trig=  2.59548e-08
tplh                =  2.03137e-08 targ=  1.20178e-07 trig=  9.98645e-08
i_vdd_avg           =  -1.83634e-06 from=  1.00000e-08 to=  3.30002e-07
power_avg_uw        =  3.30211e+00


Total analysis time (seconds) = 0.687208

Total elapsed time (seconds) = 0.759 

Total DRAM available = 16384.000 MB.
DRAM currently available =  131.391 MB.
Maximum ngspice program size =   16.109 MB.
Current ngspice program size =   16.109 MB.

