
Note: No compatibility mode selected!


Circuit: GF180MCU library cell mux2_1 I0_to_Z__I1=0,S=0

Doing analysis at TEMP = 58.101306 and TNOM = 27.000000

Using SPARSE 1.3 as Direct Linear Solver

Initial Transient Solution
--------------------------

Node                                   Voltage
----                                   -------
vdd                                    1.91498
i0                                           0
i1                                           0
s                                            0
xu1.int04                              1.91498
z                                  1.15952e-08
xu1.net_1                            0.0417348
xu1.net_3                              1.41941
xu1.sel1_n                             1.91498
xu1.net_0                              1.91498
xu1.net_2                              1.91498
vfix_s#branch                                0
vfix_i1#branch                               0
vin#branch                                   0
vdd#branch                        -1.44478e-11

 Reference value :  4.88685e-08
 Reference value :  1.11040e-07
 Reference value :  1.69195e-07
 Reference value :  2.27524e-07
 Reference value :  2.77560e-07
 Reference value :  3.34415e-07
No. of Data Rows : 68032

  Measurements for Transient Analysis

tplh                =  4.16265e-09 targ=  2.88857e-08 trig=  2.47230e-08
tphl                =  2.87225e-09 targ=  9.90413e-08 trig=  9.61690e-08
i_vdd_avg           =  -1.45284e-06 from=  1.00000e-08 to=  3.30005e-07
power_avg_uw        =  2.78217e+00


Total analysis time (seconds) = 1.86922

Total elapsed time (seconds) = 1.947 

Total DRAM available = 16384.000 MB.
DRAM currently available =  103.156 MB.
Maximum ngspice program size =   13.172 MB.
Current ngspice program size =   13.156 MB.

