
Note: No compatibility mode selected!


Circuit: GF180MCU library cell inv_4 I_to_ZN

Doing analysis at TEMP = 5.747893 and TNOM = 27.000000

Using SPARSE 1.3 as Direct Linear Solver

Initial Transient Solution
--------------------------

Node                                   Voltage
----                                   -------
vdd                                    1.67806
i                                            0
zn                                     1.67806
vin#branch                                   0
vdd#branch                        -7.58772e-12

 Reference value :  6.72935e-08
 Reference value :  1.66580e-07
 Reference value :  2.63100e-07
No. of Data Rows : 68032

  Measurements for Transient Analysis

tphl                =  3.39778e-10 targ=  2.45628e-08 trig=  2.42230e-08
tplh                =  6.76775e-10 targ=  9.53458e-08 trig=  9.46691e-08
i_vdd_avg           =  -9.63621e-07 from=  1.00000e-08 to=  3.30005e-07
power_avg_uw        =  1.61702e+00


Total analysis time (seconds) = 1.1591

Total elapsed time (seconds) = 1.228 

Total DRAM available = 16384.000 MB.
DRAM currently available =  109.328 MB.
Maximum ngspice program size =   15.703 MB.
Current ngspice program size =   15.703 MB.

