
Note: No compatibility mode selected!


Circuit: GF180MCU library cell mux2_1 I0_to_Z__I1=0,S=0

Doing analysis at TEMP = -21.385624 and TNOM = 27.000000

Using SPARSE 1.3 as Direct Linear Solver

Initial Transient Solution
--------------------------

Node                                   Voltage
----                                   -------
vdd                                    1.69956
i0                                           0
i1                                           0
s                                            0
xu1.int04                              1.69956
z                                   1.3426e-08
xu1.net_1                          4.47788e-05
xu1.net_3                              1.03861
xu1.sel1_n                             1.69956
xu1.net_0                              1.69956
xu1.net_2                              1.69956
vfix_s#branch                                0
vfix_i1#branch                               0
vin#branch                                   0
vdd#branch                        -9.00368e-12

 Reference value :  4.52249e-08
 Reference value :  1.00745e-07
 Reference value :  1.56832e-07
 Reference value :  2.15895e-07
 Reference value :  2.68555e-07
 Reference value :  3.24627e-07
No. of Data Rows : 68030

  Measurements for Transient Analysis

tplh                =  7.31727e-09 targ=  3.64560e-08 trig=  2.91387e-08
tphl                =  6.84120e-09 targ=  1.16257e-07 trig=  1.09416e-07
i_vdd_avg           =  -8.99673e-07 from=  1.00000e-08 to=  3.30002e-07
power_avg_uw        =  1.52905e+00


Total analysis time (seconds) = 1.92099

Total elapsed time (seconds) = 1.995 

Total DRAM available = 16384.000 MB.
DRAM currently available =   87.844 MB.
Maximum ngspice program size =   15.734 MB.
Current ngspice program size =   15.734 MB.

