
Note: No compatibility mode selected!


Circuit: GF180MCU library cell nand2_1 A1_to_ZN__A2=1

Doing analysis at TEMP = -32.291509 and TNOM = 27.000000

Using SPARSE 1.3 as Direct Linear Solver

Initial Transient Solution
--------------------------

Node                                   Voltage
----                                   -------
vdd                                    1.63147
a1                                           0
a2                                     1.63147
xu1.net_0                          2.07398e-11
zn                                     1.63147
vfix_a2#branch                               0
vin#branch                                   0
vdd#branch                         -1.6466e-12

 Reference value :  1.02604e-07
 Reference value :  2.69559e-07
No. of Data Rows : 68032

  Measurements for Transient Analysis

tphl                =  2.39325e-09 targ=  2.69861e-08 trig=  2.45928e-08
tplh                =  3.50215e-09 targ=  9.92806e-08 trig=  9.57784e-08
i_vdd_avg           =  -1.24829e-06 from=  1.00000e-08 to=  3.30004e-07
power_avg_uw        =  2.03656e+00


Total analysis time (seconds) = 0.687432

Total elapsed time (seconds) = 0.770 

Total DRAM available = 16384.000 MB.
DRAM currently available =  183.672 MB.
Maximum ngspice program size =   18.328 MB.
Current ngspice program size =   18.328 MB.

