
Note: No compatibility mode selected!


Circuit: GF180MCU library cell xor2_1 A1_to_Z__A2=0

Doing analysis at TEMP = 42.374266 and TNOM = 27.000000

Using SPARSE 1.3 as Direct Linear Solver

Initial Transient Solution
--------------------------

Node                                   Voltage
----                                   -------
vdd                                    1.91617
a1                                           0
a2                                           0
xu1.i                                  1.91617
z                                  3.22003e-08
xu1.net_0                          1.53205e-08
xu1.net_2                              1.91617
xu1.net_1                             0.643441
vfix_a2#branch                               0
vin#branch                                   0
vdd#branch                        -3.24731e-11

 Reference value :  4.90456e-08
 Reference value :  1.20364e-07
 Reference value :  1.88098e-07
 Reference value :  2.55431e-07
 Reference value :  3.24939e-07
No. of Data Rows : 68034

  Measurements for Transient Analysis

tplh                =  3.97832e-09 targ=  3.30874e-08 trig=  2.91091e-08
tphl                =  3.22057e-09 targ=  1.12548e-07 trig=  1.09327e-07
i_vdd_avg           =  -1.37071e-06 from=  1.00000e-08 to=  3.30004e-07
power_avg_uw        =  2.62651e+00


Total analysis time (seconds) = 1.69866

Total elapsed time (seconds) = 1.795 

Total DRAM available = 16384.000 MB.
DRAM currently available =  128.922 MB.
Maximum ngspice program size =   17.391 MB.
Current ngspice program size =   17.391 MB.

