
Note: No compatibility mode selected!


Circuit: GF180MCU library cell nor2_1 A1_to_ZN__A2=0

Doing analysis at TEMP = 98.309891 and TNOM = 27.000000

Using SPARSE 1.3 as Direct Linear Solver

Initial Transient Solution
--------------------------

Node                                   Voltage
----                                   -------
vdd                                    1.74108
a1                                           0
a2                                           0
zn                                     1.74108
xu1.net_0                              1.74108
vfix_a2#branch                               0
vin#branch                                   0
vdd#branch                        -4.10495e-12

 Reference value :  1.50859e-07
 Reference value :  3.01919e-07
No. of Data Rows : 68032

  Measurements for Transient Analysis

tphl                =  5.98633e-09 targ=  3.31041e-08 trig=  2.71178e-08
tplh                =  1.82784e-08 targ=  1.21632e-07 trig=  1.03353e-07
i_vdd_avg           =  -1.33104e-06 from=  1.00000e-08 to=  3.30004e-07
power_avg_uw        =  2.31744e+00


Total analysis time (seconds) = 0.620953

Total elapsed time (seconds) = 0.669 

Total DRAM available = 16384.000 MB.
DRAM currently available =   93.203 MB.
Maximum ngspice program size =   14.203 MB.
Current ngspice program size =   14.203 MB.

