
Note: No compatibility mode selected!


Circuit: GF180MCU library cell nor2_1 A1_to_ZN__A2=0

Doing analysis at TEMP = -30.924129 and TNOM = 27.000000

Using SPARSE 1.3 as Direct Linear Solver

Initial Transient Solution
--------------------------

Node                                   Voltage
----                                   -------
vdd                                    1.90057
a1                                           0
a2                                           0
zn                                     1.90057
xu1.net_0                              1.90057
vfix_a2#branch                               0
vin#branch                                   0
vdd#branch                         -3.8368e-12

 Reference value :  1.00474e-07
 Reference value :  2.50079e-07
No. of Data Rows : 68030

  Measurements for Transient Analysis

tphl                =  1.24711e-09 targ=  2.91903e-08 trig=  2.79432e-08
tplh                =  3.14829e-09 targ=  1.08978e-07 trig=  1.05829e-07
i_vdd_avg           =  -4.54997e-07 from=  1.00000e-08 to=  3.30000e-07
power_avg_uw        =  8.64754e-01


Total analysis time (seconds) = 0.727533

Total elapsed time (seconds) = 0.809 

Total DRAM available = 16384.000 MB.
DRAM currently available =  131.391 MB.
Maximum ngspice program size =   18.094 MB.
Current ngspice program size =   18.094 MB.

