
Note: No compatibility mode selected!


Circuit: GF180MCU library cell inv_4 I_to_ZN

Doing analysis at TEMP = 38.956605 and TNOM = 27.000000

Using SPARSE 1.3 as Direct Linear Solver

Initial Transient Solution
--------------------------

Node                                   Voltage
----                                   -------
vdd                                    1.86954
i                                            0
zn                                     1.86954
vin#branch                                   0
vdd#branch                        -1.84486e-11

 Reference value :  6.50801e-08
 Reference value :  1.57943e-07
 Reference value :  2.54495e-07
No. of Data Rows : 68034

  Measurements for Transient Analysis

tphl                =  8.54739e-10 targ=  2.91260e-08 trig=  2.82713e-08
tplh                =  2.46676e-09 targ=  1.09281e-07 trig=  1.06814e-07
i_vdd_avg           =  -1.69730e-06 from=  1.00000e-08 to=  3.30003e-07
power_avg_uw        =  3.17317e+00


Total analysis time (seconds) = 1.36158

Total elapsed time (seconds) = 1.423 

Total DRAM available = 16384.000 MB.
DRAM currently available =  127.641 MB.
Maximum ngspice program size =   17.016 MB.
Current ngspice program size =   17.016 MB.

