
Note: No compatibility mode selected!


Circuit: GF180MCU library cell nand3_4 A1_to_ZN__A2=1,A3=1

Doing analysis at TEMP = 76.150265 and TNOM = 27.000000

Using SPARSE 1.3 as Direct Linear Solver

Initial Transient Solution
--------------------------

Node                                   Voltage
----                                   -------
vdd                                    1.63487
a1                                           0
a2                                     1.63487
a3                                     1.63487
xu1.net_1_3                        7.17599e-10
xu1.net_0                           1.4352e-09
xu1.net_1_2                        7.17599e-10
xu1.net_1_1                        7.17599e-10
xu1.net_1_0                        7.17599e-10
xu1.net_0_0                         1.4352e-09
zn                                     1.63487
vfix_a3#branch                               0
vfix_a2#branch                               0
vin#branch                                   0
vdd#branch                        -6.85105e-12

 Reference value :  2.56875e-08
 Reference value :  5.84939e-08
 Reference value :  8.91189e-08
 Reference value :  1.20295e-07
 Reference value :  1.50645e-07
 Reference value :  1.81090e-07
 Reference value :  2.11734e-07
 Reference value :  2.43519e-07
 Reference value :  2.74845e-07
 Reference value :  3.04425e-07
 Reference value :  3.36290e-07
No. of Data Rows : 68030

  Measurements for Transient Analysis

tphl                =  5.37237e-09 targ=  3.20680e-08 trig=  2.66957e-08
tplh                =  6.70129e-09 targ=  1.08788e-07 trig=  1.02087e-07
i_vdd_avg           =  -2.13981e-06 from=  1.00000e-08 to=  3.30000e-07
power_avg_uw        =  3.49830e+00


Total analysis time (seconds) = 3.71317

Total elapsed time (seconds) = 3.783 

Total DRAM available = 16384.000 MB.
DRAM currently available =   84.828 MB.
Maximum ngspice program size =   17.078 MB.
Current ngspice program size =   17.078 MB.

