
Note: No compatibility mode selected!


Circuit: GF180MCU library cell mux2_4 I0_to_Z__I1=0,S=0

Doing analysis at TEMP = -35.406479 and TNOM = 27.000000

Using SPARSE 1.3 as Direct Linear Solver

Initial Transient Solution
--------------------------

Node                                   Voltage
----                                   -------
vdd                                    1.80774
i0                                           0
i1                                           0
s                                            0
xu1.int04                              1.80774
z                                  8.87493e-09
xu1.net_1                            2.064e-05
xu1.net_3                              1.11062
xu1.sel1_n                             1.80774
xu1.net_0                              1.80774
xu1.net_2                              1.80774
vfix_s#branch                                0
vfix_i1#branch                               0
vin#branch                                   0
vdd#branch                        -1.53222e-11

 Reference value :  2.61425e-08
 Reference value :  6.17572e-08
 Reference value :  1.00947e-07
 Reference value :  1.40137e-07
 Reference value :  1.81362e-07
 Reference value :  2.16722e-07
 Reference value :  2.56417e-07
 Reference value :  2.94397e-07
 Reference value :  3.35857e-07
No. of Data Rows : 68032

  Measurements for Transient Analysis

tplh                =  1.69412e-09 targ=  2.99340e-08 trig=  2.82398e-08
tphl                =  3.10864e-09 targ=  1.09828e-07 trig=  1.06720e-07
i_vdd_avg           =  -2.65842e-07 from=  1.00000e-08 to=  3.30002e-07
power_avg_uw        =  4.80574e-01


Total analysis time (seconds) = 2.82937

Total elapsed time (seconds) = 2.907 

Total DRAM available = 16384.000 MB.
DRAM currently available =   68.219 MB.
Maximum ngspice program size =   14.672 MB.
Current ngspice program size =   14.672 MB.

