
Note: No compatibility mode selected!


Circuit: GF180MCU library cell oai21_1 A1_to_ZN__A2=0,B=1

Doing analysis at TEMP = 17.026060 and TNOM = 27.000000

Using SPARSE 1.3 as Direct Linear Solver

Initial Transient Solution
--------------------------

Node                                   Voltage
----                                   -------
vdd                                    1.94818
a1                                           0
a2                                           0
b                                      1.94818
zn                                     1.94818
xu1.net_0                          8.67624e-12
xu1.net_1                              1.94818
vfix_b#branch                                0
vfix_a2#branch                               0
vin#branch                                   0
vdd#branch                        -3.91762e-12

 Reference value :  6.63967e-08
 Reference value :  1.76741e-07
 Reference value :  2.75486e-07
No. of Data Rows : 68032

  Measurements for Transient Analysis

tphl                =  1.24744e-09 targ=  2.70070e-08 trig=  2.57596e-08
tplh                =  2.28872e-09 targ=  1.01568e-07 trig=  9.92788e-08
i_vdd_avg           =  -1.64618e-07 from=  1.00000e-08 to=  3.30001e-07
power_avg_uw        =  3.20705e-01


Total analysis time (seconds) = 1.14676

Total elapsed time (seconds) = 1.218 

Total DRAM available = 16384.000 MB.
DRAM currently available =  105.797 MB.
Maximum ngspice program size =   14.094 MB.
Current ngspice program size =   14.094 MB.

