
Note: No compatibility mode selected!


Circuit: GF180MCU library cell nand2_4 A1_to_ZN__A2=1

Doing analysis at TEMP = 93.210824 and TNOM = 27.000000

Using SPARSE 1.3 as Direct Linear Solver

Initial Transient Solution
--------------------------

Node                                   Voltage
----                                   -------
vdd                                    1.70812
a1                                           0
a2                                     1.70812
xu1.net_0_0                        2.92645e-07
zn                                     1.70812
xu1.net_0_1                        2.92645e-07
xu1.net_0_2                        2.92645e-07
xu1.net_0_3                        2.92645e-07
vfix_a2#branch                               0
vin#branch                                   0
vdd#branch                        -2.25331e-10

 Reference value :  2.62125e-08
 Reference value :  7.56133e-08
 Reference value :  1.24319e-07
 Reference value :  1.77024e-07
 Reference value :  2.27463e-07
 Reference value :  2.81254e-07
 Reference value :  3.33404e-07
No. of Data Rows : 68032

  Measurements for Transient Analysis

tphl                =  1.07144e-09 targ=  3.05219e-08 trig=  2.94504e-08
tplh                =  2.66925e-09 targ=  1.13021e-07 trig=  1.10351e-07
i_vdd_avg           =  -1.17228e-06 from=  1.00000e-08 to=  3.30004e-07
power_avg_uw        =  2.00240e+00


Total analysis time (seconds) = 2.1726

Total elapsed time (seconds) = 2.252 

Total DRAM available = 16384.000 MB.
DRAM currently available =   91.078 MB.
Maximum ngspice program size =   16.516 MB.
Current ngspice program size =   16.516 MB.

