
Note: No compatibility mode selected!


Circuit: GF180MCU library cell oai21_4 A1_to_ZN__A2=0,B=1

Doing analysis at TEMP = 96.600253 and TNOM = 27.000000

Using SPARSE 1.3 as Direct Linear Solver

Initial Transient Solution
--------------------------

Node                                   Voltage
----                                   -------
vdd                                    1.97338
a1                                           0
a2                                           0
b                                      1.97338
zn                                     1.97338
xu1.net_0                          6.72701e-07
xu1.net_1_0                            1.97338
xu1.net_1_1                            1.97338
xu1.net_1_2                            1.97338
xu1.net_1_3                            1.97338
vfix_b#branch                                0
vfix_a2#branch                               0
vin#branch                                   0
vdd#branch                        -5.96469e-10

 Reference value :  2.94325e-08
 Reference value :  6.31059e-08
 Reference value :  9.17159e-08
 Reference value :  1.18944e-07
 Reference value :  1.47074e-07
 Reference value :  1.77654e-07
 Reference value :  2.07241e-07
 Reference value :  2.37621e-07
 Reference value :  2.68471e-07
 Reference value :  2.99809e-07
 Reference value :  3.31749e-07
No. of Data Rows : 68034

  Measurements for Transient Analysis

tphl                =  1.20632e-09 targ=  3.10905e-08 trig=  2.98842e-08
tplh                =  4.17303e-09 targ=  1.15826e-07 trig=  1.11653e-07
i_vdd_avg           =  -2.23923e-06 from=  1.00000e-08 to=  3.30004e-07
power_avg_uw        =  4.41886e+00


Total analysis time (seconds) = 3.6509

Total elapsed time (seconds) = 3.713 

Total DRAM available = 16384.000 MB.
DRAM currently available =   87.406 MB.
Maximum ngspice program size =   13.594 MB.
Current ngspice program size =   13.422 MB.

