
Note: No compatibility mode selected!


Circuit: GF180MCU library cell xor2_4 A1_to_Z__A2=0

Doing analysis at TEMP = 72.272436 and TNOM = 27.000000

Using SPARSE 1.3 as Direct Linear Solver

Initial Transient Solution
--------------------------

Node                                   Voltage
----                                   -------
vdd                                    1.97543
a1                                           0
a2                                           0
xu1.net_2                            0.0530003
xu1.i                                  1.97543
xu1.net_0                          1.84946e-07
xu1.z_neg                              1.97543
z                                  1.02642e-08
xu1.net_1                              1.97543
vfix_a2#branch                               0
vin#branch                                   0
vdd#branch                        -6.75283e-11

 Reference value :  2.53217e-08
 Reference value :  6.73467e-08
 Reference value :  1.08251e-07
 Reference value :  1.48711e-07
 Reference value :  1.88477e-07
 Reference value :  2.27942e-07
 Reference value :  2.67781e-07
 Reference value :  3.11871e-07
No. of Data Rows : 68032

  Measurements for Transient Analysis

tplh                =  6.81320e-10 targ=  2.50134e-08 trig=  2.43321e-08
tphl                =  1.01927e-09 targ=  9.60156e-08 trig=  9.49963e-08
i_vdd_avg           =  -7.08078e-07 from=  1.00000e-08 to=  3.30001e-07
power_avg_uw        =  1.39876e+00


Total analysis time (seconds) = 2.77243

Total elapsed time (seconds) = 2.847 

Total DRAM available = 16384.000 MB.
DRAM currently available =  121.734 MB.
Maximum ngspice program size =   17.688 MB.
Current ngspice program size =   17.688 MB.

