
Note: No compatibility mode selected!


Circuit: GF180MCU library cell aoi21_4 A1_to_ZN__A2=1,B=0

Doing analysis at TEMP = -35.996638 and TNOM = 27.000000

Using SPARSE 1.3 as Direct Linear Solver

Initial Transient Solution
--------------------------

Node                                   Voltage
----                                   -------
vdd                                    1.67854
a1                                           0
a2                                     1.67854
b                                            0
xu1.net_0_0                        2.70759e-13
zn                                     1.67854
xu1.net_0_1                        2.67442e-13
xu1.net_0_2                        2.70759e-13
xu1.net_0_3                        2.67442e-13
xu1.net_1                              1.67854
vfix_b#branch                                0
vfix_a2#branch                               0
vin#branch                                   0
vdd#branch                        -1.35089e-11

 Reference value :  2.92125e-08
 Reference value :  6.50294e-08
 Reference value :  9.65394e-08
 Reference value :  1.27941e-07
 Reference value :  1.57266e-07
 Reference value :  1.88773e-07
 Reference value :  2.20694e-07
 Reference value :  2.53319e-07
 Reference value :  2.85161e-07
 Reference value :  3.15961e-07
No. of Data Rows : 68030

  Measurements for Transient Analysis

tphl                =  1.13987e-09 targ=  3.04708e-08 trig=  2.93310e-08
tplh                =  3.04561e-09 targ=  1.13038e-07 trig=  1.09993e-07
i_vdd_avg           =  -2.57158e-07 from=  1.00000e-08 to=  3.30001e-07
power_avg_uw        =  4.31649e-01


Total analysis time (seconds) = 3.34021

Total elapsed time (seconds) = 3.408 

Total DRAM available = 16384.000 MB.
DRAM currently available =   73.859 MB.
Maximum ngspice program size =   15.406 MB.
Current ngspice program size =   15.406 MB.

