
Note: No compatibility mode selected!


Circuit: GF180MCU library cell oai21_1 A1_to_ZN__A2=0,B=1

Doing analysis at TEMP = 122.400040 and TNOM = 27.000000

Using SPARSE 1.3 as Direct Linear Solver

Initial Transient Solution
--------------------------

Node                                   Voltage
----                                   -------
vdd                                    1.81396
a1                                           0
a2                                           0
b                                      1.81396
zn                                     1.81396
xu1.net_0                          2.12952e-07
xu1.net_1                              1.81396
vfix_b#branch                                0
vfix_a2#branch                               0
vin#branch                                   0
vdd#branch                        -3.34038e-11

 Reference value :  6.65830e-08
 Reference value :  1.69233e-07
 Reference value :  2.67913e-07
No. of Data Rows : 68032

  Measurements for Transient Analysis

tphl                =  5.45832e-09 targ=  3.25211e-08 trig=  2.70627e-08
tplh                =  1.25906e-08 targ=  1.15779e-07 trig=  1.03188e-07
i_vdd_avg           =  -1.68723e-06 from=  1.00000e-08 to=  3.30003e-07
power_avg_uw        =  3.06057e+00


Total analysis time (seconds) = 1.11101

Total elapsed time (seconds) = 1.180 

Total DRAM available = 16384.000 MB.
DRAM currently available =  146.828 MB.
Maximum ngspice program size =   15.359 MB.
Current ngspice program size =   15.359 MB.

