
Note: No compatibility mode selected!


Circuit: GF180MCU library cell oai21_1 A1_to_ZN__A2=0,B=1

Doing analysis at TEMP = -32.233337 and TNOM = 27.000000

Using SPARSE 1.3 as Direct Linear Solver

Initial Transient Solution
--------------------------

Node                                   Voltage
----                                   -------
vdd                                    1.65585
a1                                           0
a2                                           0
b                                      1.65585
zn                                     1.65585
xu1.net_0                          9.00805e-13
xu1.net_1                              1.65585
vfix_b#branch                                0
vfix_a2#branch                               0
vin#branch                                   0
vdd#branch                        -3.33186e-12

 Reference value :  1.03523e-07
 Reference value :  2.21728e-07
 Reference value :  3.16008e-07
No. of Data Rows : 68032

  Measurements for Transient Analysis

tphl                =  1.75133e-09 targ=  2.90916e-08 trig=  2.73402e-08
tplh                =  3.39234e-09 targ=  1.07413e-07 trig=  1.04021e-07
i_vdd_avg           =  -1.77616e-07 from=  1.00000e-08 to=  3.30003e-07
power_avg_uw        =  2.94104e-01


Total analysis time (seconds) = 1.06123

Total elapsed time (seconds) = 1.120 

Total DRAM available = 16384.000 MB.
DRAM currently available =  120.594 MB.
Maximum ngspice program size =   12.906 MB.
Current ngspice program size =   12.906 MB.

