
Note: No compatibility mode selected!


Circuit: GF180MCU library cell nor2_1 A1_to_ZN__A2=0

Doing analysis at TEMP = -36.311155 and TNOM = 27.000000

Using SPARSE 1.3 as Direct Linear Solver

Initial Transient Solution
--------------------------

Node                                   Voltage
----                                   -------
vdd                                    1.89574
a1                                           0
a2                                           0
zn                                     1.89574
xu1.net_0                              1.89574
vfix_a2#branch                               0
vin#branch                                   0
vdd#branch                        -3.81161e-12

 Reference value :  1.54523e-07
 Reference value :  3.19578e-07
No. of Data Rows : 68032

  Measurements for Transient Analysis

tphl                =  5.56560e-10 targ=  2.54892e-08 trig=  2.49326e-08
tplh                =  1.09068e-09 targ=  9.78885e-08 trig=  9.67978e-08
i_vdd_avg           =  -1.24210e-07 from=  1.00000e-08 to=  3.30003e-07
power_avg_uw        =  2.35470e-01


Total analysis time (seconds) = 0.660113

Total elapsed time (seconds) = 0.718 

Total DRAM available = 16384.000 MB.
DRAM currently available =   84.797 MB.
Maximum ngspice program size =   13.172 MB.
Current ngspice program size =   12.906 MB.

