
Note: No compatibility mode selected!


Circuit: GF180MCU library cell inv_1 I_to_ZN

Doing analysis at TEMP = 39.808959 and TNOM = 27.000000

Using SPARSE 1.3 as Direct Linear Solver

Initial Transient Solution
--------------------------

Node                                   Voltage
----                                   -------
vdd                                    1.95239
i                                            0
zn                                     1.95239
vin#branch                                   0
vdd#branch                        -1.96737e-12

 Reference value :  2.63250e-07
No. of Data Rows : 68034

  Measurements for Transient Analysis

tphl                =  4.32794e-09 targ=  2.93322e-08 trig=  2.50043e-08
tplh                =  9.78118e-09 targ=  1.06794e-07 trig=  9.70128e-08
i_vdd_avg           =  -2.41979e-06 from=  1.00000e-08 to=  3.30005e-07
power_avg_uw        =  4.72436e+00


Total analysis time (seconds) = 0.317445

Total elapsed time (seconds) = 0.372 

Total DRAM available = 16384.000 MB.
DRAM currently available =  109.594 MB.
Maximum ngspice program size =   14.000 MB.
Current ngspice program size =   14.000 MB.

