
Note: No compatibility mode selected!


Circuit: GF180MCU library cell xor2_1 A1_to_Z__A2=0

Doing analysis at TEMP = -22.688635 and TNOM = 27.000000

Using SPARSE 1.3 as Direct Linear Solver

Initial Transient Solution
--------------------------

Node                                   Voltage
----                                   -------
vdd                                    1.94258
a1                                           0
a2                                           0
xu1.i                                  1.94258
z                                  2.53484e-08
xu1.net_0                            9.875e-10
xu1.net_2                              1.94258
xu1.net_1                             0.763159
vfix_a2#branch                               0
vin#branch                                   0
vdd#branch                        -1.15515e-11

 Reference value :  4.42744e-08
 Reference value :  1.17151e-07
 Reference value :  1.88768e-07
 Reference value :  2.62779e-07
 Reference value :  3.36996e-07
No. of Data Rows : 68030

  Measurements for Transient Analysis

tplh                =  3.70352e-09 targ=  3.15870e-08 trig=  2.78834e-08
tphl                =  2.63335e-09 targ=  1.08284e-07 trig=  1.05650e-07
i_vdd_avg           =  -1.40163e-06 from=  1.00000e-08 to=  3.30001e-07
power_avg_uw        =  2.72278e+00


Total analysis time (seconds) = 1.49866

Total elapsed time (seconds) = 1.579 

Total DRAM available = 16384.000 MB.
DRAM currently available =  108.391 MB.
Maximum ngspice program size =   18.578 MB.
Current ngspice program size =   18.578 MB.

