
Note: No compatibility mode selected!


Circuit: GF180MCU library cell nor2_1 A1_to_ZN__A2=0

Doing analysis at TEMP = 5.861417 and TNOM = 27.000000

Using SPARSE 1.3 as Direct Linear Solver

Initial Transient Solution
--------------------------

Node                                   Voltage
----                                   -------
vdd                                    1.63472
a1                                           0
a2                                           0
zn                                     1.63472
xu1.net_0                              1.63472
vfix_a2#branch                               0
vin#branch                                   0
vdd#branch                        -3.28986e-12

 Reference value :  1.06653e-07
 Reference value :  2.58643e-07
No. of Data Rows : 68032

  Measurements for Transient Analysis

tphl                =  5.22771e-09 targ=  3.38131e-08 trig=  2.85854e-08
tplh                =  1.37222e-08 targ=  1.21478e-07 trig=  1.07756e-07
i_vdd_avg           =  -6.92636e-07 from=  1.00000e-08 to=  3.30004e-07
power_avg_uw        =  1.13227e+00


Total analysis time (seconds) = 0.765197

Total elapsed time (seconds) = 0.865 

Total DRAM available = 16384.000 MB.
DRAM currently available =  102.938 MB.
Maximum ngspice program size =   17.625 MB.
Current ngspice program size =   17.625 MB.

