
Note: No compatibility mode selected!


Circuit: GF180MCU library cell mux2_4 I0_to_Z__I1=0,S=0

Doing analysis at TEMP = 85.465923 and TNOM = 27.000000

Using SPARSE 1.3 as Direct Linear Solver

Initial Transient Solution
--------------------------

Node                                   Voltage
----                                   -------
vdd                                    1.86658
i0                                           0
i1                                           0
s                                            0
xu1.int04                              1.86658
z                                  1.27041e-08
xu1.net_1                            0.0422586
xu1.net_3                              1.34889
xu1.sel1_n                             1.86658
xu1.net_0                              1.86658
xu1.net_2                              1.86658
vfix_s#branch                                0
vfix_i1#branch                               0
vin#branch                                   0
vdd#branch                        -2.08817e-11

 Reference value :  3.48552e-08
 Reference value :  7.90252e-08
 Reference value :  1.19268e-07
 Reference value :  1.59518e-07
 Reference value :  1.95535e-07
 Reference value :  2.35740e-07
 Reference value :  2.76043e-07
 Reference value :  3.17038e-07
No. of Data Rows : 68034

  Measurements for Transient Analysis

tplh                =  2.29467e-09 targ=  2.93760e-08 trig=  2.70814e-08
tphl                =  3.16007e-09 targ=  1.06404e-07 trig=  1.03244e-07
i_vdd_avg           =  -1.44890e-06 from=  1.00000e-08 to=  3.30003e-07
power_avg_uw        =  2.70450e+00


Total analysis time (seconds) = 2.62894

Total elapsed time (seconds) = 2.689 

Total DRAM available = 16384.000 MB.
DRAM currently available =   93.250 MB.
Maximum ngspice program size =   15.250 MB.
Current ngspice program size =   15.250 MB.

