
Note: No compatibility mode selected!


Circuit: GF180MCU library cell inv_4 I_to_ZN

Doing analysis at TEMP = 0.178054 and TNOM = 27.000000

Using SPARSE 1.3 as Direct Linear Solver

Initial Transient Solution
--------------------------

Node                                   Voltage
----                                   -------
vdd                                    1.68606
i                                            0
zn                                     1.68606
vin#branch                                   0
vdd#branch                        -6.78462e-12

 Reference value :  6.58722e-08
 Reference value :  1.66242e-07
 Reference value :  2.67347e-07
No. of Data Rows : 68032

  Measurements for Transient Analysis

tphl                =  2.74491e-09 targ=  3.16597e-08 trig=  2.89148e-08
tplh                =  4.66722e-09 targ=  1.13412e-07 trig=  1.08745e-07
i_vdd_avg           =  -7.91074e-07 from=  1.00000e-08 to=  3.30002e-07
power_avg_uw        =  1.33380e+00


Total analysis time (seconds) = 1.153

Total elapsed time (seconds) = 1.231 

Total DRAM available = 16384.000 MB.
DRAM currently available =  127.641 MB.
Maximum ngspice program size =   16.906 MB.
Current ngspice program size =   16.906 MB.

