
Note: No compatibility mode selected!


Circuit: GF180MCU library cell oai21_4 A1_to_ZN__A2=0,B=1

Doing analysis at TEMP = 49.520961 and TNOM = 27.000000

Using SPARSE 1.3 as Direct Linear Solver

Initial Transient Solution
--------------------------

Node                                   Voltage
----                                   -------
vdd                                    1.72689
a1                                           0
a2                                           0
b                                      1.72689
zn                                     1.72689
xu1.net_0                          1.82263e-10
xu1.net_1_0                            1.72689
xu1.net_1_1                            1.72689
xu1.net_1_2                            1.72689
xu1.net_1_3                            1.72689
vfix_b#branch                                0
vfix_a2#branch                               0
vin#branch                                   0
vdd#branch                        -1.39755e-11

 Reference value :  2.31314e-08
 Reference value :  5.38479e-08
 Reference value :  8.51379e-08
 Reference value :  1.14983e-07
 Reference value :  1.47013e-07
 Reference value :  1.77668e-07
 Reference value :  2.07873e-07
 Reference value :  2.39413e-07
 Reference value :  2.67673e-07
 Reference value :  2.99233e-07
 Reference value :  3.29108e-07
No. of Data Rows : 68032

  Measurements for Transient Analysis

tphl                =  2.18603e-09 targ=  2.66312e-08 trig=  2.44452e-08
tplh                =  6.88233e-09 targ=  1.02218e-07 trig=  9.53356e-08
i_vdd_avg           =  -1.86869e-06 from=  1.00000e-08 to=  3.30003e-07
power_avg_uw        =  3.22701e+00


Total analysis time (seconds) = 3.64622

Total elapsed time (seconds) = 3.712 

Total DRAM available = 16384.000 MB.
DRAM currently available =   86.344 MB.
Maximum ngspice program size =   16.625 MB.
Current ngspice program size =   16.625 MB.

