
Note: No compatibility mode selected!


Circuit: GF180MCU library cell nand2_4 A1_to_ZN__A2=1

Doing analysis at TEMP = 21.381207 and TNOM = 27.000000

Using SPARSE 1.3 as Direct Linear Solver

Initial Transient Solution
--------------------------

Node                                   Voltage
----                                   -------
vdd                                     1.7178
a1                                           0
a2                                      1.7178
xu1.net_0_0                        1.39492e-10
zn                                      1.7178
xu1.net_0_1                        1.39492e-10
xu1.net_0_2                        1.39492e-10
xu1.net_0_3                        1.39492e-10
vfix_a2#branch                               0
vin#branch                                   0
vdd#branch                        -7.00488e-12

 Reference value :  3.15284e-08
 Reference value :  7.86484e-08
 Reference value :  1.28329e-07
 Reference value :  1.79094e-07
 Reference value :  2.27123e-07
 Reference value :  2.76714e-07
 Reference value :  3.28404e-07
No. of Data Rows : 68032

  Measurements for Transient Analysis

tphl                =  1.00490e-09 targ=  2.76604e-08 trig=  2.66555e-08
tplh                =  1.81205e-09 targ=  1.03778e-07 trig=  1.01966e-07
i_vdd_avg           =  -4.17580e-07 from=  1.00000e-08 to=  3.30004e-07
power_avg_uw        =  7.17321e-01


Total analysis time (seconds) = 2.22511

Total elapsed time (seconds) = 2.303 

Total DRAM available = 16384.000 MB.
DRAM currently available =   97.922 MB.
Maximum ngspice program size =   18.812 MB.
Current ngspice program size =   18.812 MB.

