
Note: No compatibility mode selected!


Circuit: GF180MCU library cell nor2_4 A1_to_ZN__A2=0

Doing analysis at TEMP = 37.708233 and TNOM = 27.000000

Using SPARSE 1.3 as Direct Linear Solver

Initial Transient Solution
--------------------------

Node                                   Voltage
----                                   -------
vdd                                    1.80568
a1                                           0
a2                                           0
zn                                     1.80568
xu1.net_0_0                            1.80568
xu1.net_0_1                            1.80568
xu1.net_0_2                            1.80568
xu1.net_0_3                            1.80568
vfix_a2#branch                               0
vin#branch                                   0
vdd#branch                        -1.45608e-11

 Reference value :  3.42670e-08
 Reference value :  8.23270e-08
 Reference value :  1.27226e-07
 Reference value :  1.75561e-07
 Reference value :  2.22962e-07
 Reference value :  2.68886e-07
 Reference value :  3.18951e-07
No. of Data Rows : 68032

  Measurements for Transient Analysis

tphl                =  6.86580e-10 targ=  2.71438e-08 trig=  2.64572e-08
tplh                =  1.57719e-09 targ=  1.02949e-07 trig=  1.01372e-07
i_vdd_avg           =  -1.19187e-07 from=  1.00000e-08 to=  3.30001e-07
power_avg_uw        =  2.15212e-01


Total analysis time (seconds) = 2.31286

Total elapsed time (seconds) = 2.408 

Total DRAM available = 16384.000 MB.
DRAM currently available =  134.375 MB.
Maximum ngspice program size =   18.828 MB.
Current ngspice program size =   18.828 MB.

