
Note: No compatibility mode selected!


Circuit: GF180MCU library cell aoi21_1 A1_to_ZN__A2=1,B=0

Doing analysis at TEMP = 98.223094 and TNOM = 27.000000

Using SPARSE 1.3 as Direct Linear Solver

Initial Transient Solution
--------------------------

Node                                   Voltage
----                                   -------
vdd                                    1.62321
a1                                           0
a2                                     1.62321
b                                            0
xu1.net_0                          3.09103e-09
zn                                     1.62321
xu1.net_1                              1.62321
vfix_b#branch                                0
vfix_a2#branch                               0
vin#branch                                   0
vdd#branch                        -3.87125e-12

 Reference value :  1.04311e-07
 Reference value :  2.11146e-07
 Reference value :  3.13449e-07
No. of Data Rows : 68034

  Measurements for Transient Analysis

tphl                =  1.12259e-08 targ=  3.96251e-08 trig=  2.83992e-08
tplh                =  2.98986e-08 targ=  1.37096e-07 trig=  1.07198e-07
i_vdd_avg           =  -1.61754e-06 from=  1.00000e-08 to=  3.30004e-07
power_avg_uw        =  2.62561e+00


Total analysis time (seconds) = 1.03212

Total elapsed time (seconds) = 1.093 

Total DRAM available = 16384.000 MB.
DRAM currently available =   98.141 MB.
Maximum ngspice program size =   14.062 MB.
Current ngspice program size =   14.062 MB.

