
Note: No compatibility mode selected!


Circuit: GF180MCU library cell aoi21_1 A1_to_ZN__A2=1,B=0

Doing analysis at TEMP = 117.794280 and TNOM = 27.000000

Using SPARSE 1.3 as Direct Linear Solver

Initial Transient Solution
--------------------------

Node                                   Voltage
----                                   -------
vdd                                    1.75496
a1                                           0
a2                                     1.75496
b                                            0
xu1.net_0                          9.19027e-09
zn                                     1.75496
xu1.net_1                              1.75496
vfix_b#branch                                0
vfix_a2#branch                               0
vin#branch                                   0
vdd#branch                        -5.43312e-12

 Reference value :  6.90877e-08
 Reference value :  1.77728e-07
 Reference value :  2.78998e-07
No. of Data Rows : 68032

  Measurements for Transient Analysis

tphl                =  1.08466e-08 targ=  3.81742e-08 trig=  2.73276e-08
tplh                =  2.82277e-08 targ=  1.32211e-07 trig=  1.03983e-07
i_vdd_avg           =  -2.10260e-06 from=  1.00000e-08 to=  3.30003e-07
power_avg_uw        =  3.68999e+00


Total analysis time (seconds) = 1.07841

Total elapsed time (seconds) = 1.164 

Total DRAM available = 16384.000 MB.
DRAM currently available =  148.812 MB.
Maximum ngspice program size =   17.922 MB.
Current ngspice program size =   17.922 MB.

