
Note: No compatibility mode selected!


Circuit: GF180MCU library cell nand2_4 A1_to_ZN__A2=1

Doing analysis at TEMP = 32.920863 and TNOM = 27.000000

Using SPARSE 1.3 as Direct Linear Solver

Initial Transient Solution
--------------------------

Node                                   Voltage
----                                   -------
vdd                                    1.76937
a1                                           0
a2                                     1.76937
xu1.net_0_0                        2.13522e-11
zn                                     1.76937
xu1.net_0_1                        2.13522e-11
xu1.net_0_2                        2.13522e-11
xu1.net_0_3                        2.13522e-11
vfix_a2#branch                               0
vin#branch                                   0
vdd#branch                        -7.12772e-12

 Reference value :  3.05851e-08
 Reference value :  8.30201e-08
 Reference value :  1.33268e-07
 Reference value :  1.82523e-07
 Reference value :  2.32445e-07
 Reference value :  2.82108e-07
 Reference value :  3.31603e-07
No. of Data Rows : 68034

  Measurements for Transient Analysis

tphl                =  1.27975e-09 targ=  2.57486e-08 trig=  2.44688e-08
tplh                =  1.88884e-09 targ=  9.72953e-08 trig=  9.54064e-08
i_vdd_avg           =  -1.08213e-06 from=  1.00000e-08 to=  3.30003e-07
power_avg_uw        =  1.91469e+00


Total analysis time (seconds) = 2.18468

Total elapsed time (seconds) = 2.259 

Total DRAM available = 16384.000 MB.
DRAM currently available =  125.984 MB.
Maximum ngspice program size =   15.594 MB.
Current ngspice program size =   15.594 MB.

