
Note: No compatibility mode selected!


Circuit: GF180MCU library cell nand3_4 A1_to_ZN__A2=1,A3=1

Doing analysis at TEMP = 112.441170 and TNOM = 27.000000

Using SPARSE 1.3 as Direct Linear Solver

Initial Transient Solution
--------------------------

Node                                   Voltage
----                                   -------
vdd                                    1.95126
a1                                           0
a2                                     1.95126
a3                                     1.95126
xu1.net_1_3                        6.24915e-08
xu1.net_0                          1.24983e-07
xu1.net_1_2                        6.24915e-08
xu1.net_1_1                        6.24915e-08
xu1.net_1_0                        6.24915e-08
xu1.net_0_0                        1.24983e-07
zn                                     1.95126
vfix_a3#branch                               0
vfix_a2#branch                               0
vin#branch                                   0
vdd#branch                        -4.67828e-11

 Reference value :  2.72625e-08
 Reference value :  5.73833e-08
 Reference value :  8.56183e-08
 Reference value :  1.15794e-07
 Reference value :  1.46599e-07
 Reference value :  1.76299e-07
 Reference value :  2.06138e-07
 Reference value :  2.36828e-07
 Reference value :  2.66623e-07
 Reference value :  2.98174e-07
 Reference value :  3.29164e-07
No. of Data Rows : 68032

  Measurements for Transient Analysis

tphl                =  2.97451e-09 targ=  3.12724e-08 trig=  2.82979e-08
tplh                =  3.97774e-09 targ=  1.10872e-07 trig=  1.06894e-07
i_vdd_avg           =  -2.21383e-06 from=  1.00000e-08 to=  3.30004e-07
power_avg_uw        =  4.31976e+00


Total analysis time (seconds) = 3.75532

Total elapsed time (seconds) = 3.818 

Total DRAM available = 16384.000 MB.
DRAM currently available =   82.250 MB.
Maximum ngspice program size =   12.781 MB.
Current ngspice program size =   12.781 MB.

