
Note: No compatibility mode selected!


Circuit: GF180MCU library cell nand2_4 A1_to_ZN__A2=1

Doing analysis at TEMP = 3.079641 and TNOM = 27.000000

Using SPARSE 1.3 as Direct Linear Solver

Initial Transient Solution
--------------------------

Node                                   Voltage
----                                   -------
vdd                                    1.65794
a1                                           0
a2                                     1.65794
xu1.net_0_0                        7.26525e-10
zn                                     1.65794
xu1.net_0_1                        7.26525e-10
xu1.net_0_2                        7.26525e-10
xu1.net_0_3                        7.26525e-10
vfix_a2#branch                               0
vin#branch                                   0
vdd#branch                        -7.33181e-12

 Reference value :  3.08615e-08
 Reference value :  8.06665e-08
 Reference value :  1.34250e-07
 Reference value :  1.85893e-07
 Reference value :  2.35716e-07
 Reference value :  2.84910e-07
 Reference value :  3.35115e-07
No. of Data Rows : 68032

  Measurements for Transient Analysis

tphl                =  1.11238e-09 targ=  2.74594e-08 trig=  2.63470e-08
tplh                =  1.89086e-09 targ=  1.02932e-07 trig=  1.01041e-07
i_vdd_avg           =  -9.82801e-07 from=  1.00000e-08 to=  3.30000e-07
power_avg_uw        =  1.62942e+00


Total analysis time (seconds) = 2.20504

Total elapsed time (seconds) = 2.271 

Total DRAM available = 16384.000 MB.
DRAM currently available =  118.203 MB.
Maximum ngspice program size =   15.984 MB.
Current ngspice program size =   15.984 MB.

