
Note: No compatibility mode selected!


Circuit: GF180MCU library cell oai21_1 A1_to_ZN__A2=0,B=1

Doing analysis at TEMP = -14.526980 and TNOM = 27.000000

Using SPARSE 1.3 as Direct Linear Solver

Initial Transient Solution
--------------------------

Node                                   Voltage
----                                   -------
vdd                                    1.74438
a1                                           0
a2                                           0
b                                      1.74438
zn                                     1.74438
xu1.net_0                           7.5866e-12
xu1.net_1                              1.74438
vfix_b#branch                                0
vfix_a2#branch                               0
vin#branch                                   0
vdd#branch                        -3.51021e-12

 Reference value :  7.07266e-08
 Reference value :  1.70556e-07
 Reference value :  2.75081e-07
No. of Data Rows : 68032

  Measurements for Transient Analysis

tphl                =  5.86198e-09 targ=  3.30990e-08 trig=  2.72370e-08
tplh                =  1.42406e-08 targ=  1.17952e-07 trig=  1.03711e-07
i_vdd_avg           =  -1.92704e-06 from=  1.00000e-08 to=  3.30001e-07
power_avg_uw        =  3.36149e+00


Total analysis time (seconds) = 1.13267

Total elapsed time (seconds) = 1.210 

Total DRAM available = 16384.000 MB.
DRAM currently available =  123.047 MB.
Maximum ngspice program size =   16.078 MB.
Current ngspice program size =   16.078 MB.

