
Note: No compatibility mode selected!


Circuit: GF180MCU library cell oai21_1 A1_to_ZN__A2=0,B=1

Doing analysis at TEMP = 104.319170 and TNOM = 27.000000

Using SPARSE 1.3 as Direct Linear Solver

Initial Transient Solution
--------------------------

Node                                   Voltage
----                                   -------
vdd                                    1.62345
a1                                           0
a2                                           0
b                                      1.62345
zn                                     1.62344
xu1.net_0                          1.02398e-06
xu1.net_1                              1.62344
vfix_b#branch                                0
vfix_a2#branch                               0
vin#branch                                   0
vdd#branch                        -1.79308e-10

 Reference value :  7.28690e-08
 Reference value :  1.78950e-07
 Reference value :  2.74765e-07
No. of Data Rows : 68030

  Measurements for Transient Analysis

tphl                =  4.94566e-09 targ=  3.05114e-08 trig=  2.55657e-08
tplh                =  1.22142e-08 targ=  1.10911e-07 trig=  9.86972e-08
i_vdd_avg           =  -2.01765e-06 from=  1.00000e-08 to=  3.30000e-07
power_avg_uw        =  3.27555e+00


Total analysis time (seconds) = 1.09738

Total elapsed time (seconds) = 1.164 

Total DRAM available = 16384.000 MB.
DRAM currently available =  123.047 MB.
Maximum ngspice program size =   15.875 MB.
Current ngspice program size =   15.875 MB.

