
Note: No compatibility mode selected!


Circuit: GF180MCU library cell nand3_4 A1_to_ZN__A2=1,A3=1

Doing analysis at TEMP = 35.827072 and TNOM = 27.000000

Using SPARSE 1.3 as Direct Linear Solver

Initial Transient Solution
--------------------------

Node                                   Voltage
----                                   -------
vdd                                    1.71849
a1                                           0
a2                                     1.71849
a3                                     1.71849
xu1.net_1_3                        4.69823e-10
xu1.net_0                          9.39645e-10
xu1.net_1_2                        4.69823e-10
xu1.net_1_1                        4.69823e-10
xu1.net_1_0                        4.69823e-10
xu1.net_0_0                        9.39645e-10
zn                                     1.71849
vfix_a3#branch                               0
vfix_a2#branch                               0
vin#branch                                   0
vdd#branch                         -7.2172e-12

 Reference value :  2.69657e-08
 Reference value :  5.54407e-08
 Reference value :  8.37357e-08
 Reference value :  1.13929e-07
 Reference value :  1.45259e-07
 Reference value :  1.74204e-07
 Reference value :  2.04421e-07
 Reference value :  2.33661e-07
 Reference value :  2.64494e-07
 Reference value :  2.96169e-07
 Reference value :  3.26909e-07
No. of Data Rows : 68034

  Measurements for Transient Analysis

tphl                =  1.46133e-09 targ=  2.67229e-08 trig=  2.52616e-08
tplh                =  1.83225e-09 targ=  9.96170e-08 trig=  9.77848e-08
i_vdd_avg           =  -9.84240e-07 from=  1.00000e-08 to=  3.30004e-07
power_avg_uw        =  1.69140e+00


Total analysis time (seconds) = 3.96028

Total elapsed time (seconds) = 4.027 

Total DRAM available = 16384.000 MB.
DRAM currently available =   73.812 MB.
Maximum ngspice program size =   14.703 MB.
Current ngspice program size =   14.703 MB.

