
Note: No compatibility mode selected!


Circuit: GF180MCU library cell mux2_1 I0_to_Z__I1=0,S=0

Doing analysis at TEMP = 31.533194 and TNOM = 27.000000

Using SPARSE 1.3 as Direct Linear Solver

Initial Transient Solution
--------------------------

Node                                   Voltage
----                                   -------
vdd                                    1.63437
i0                                           0
i1                                           0
s                                            0
xu1.int04                              1.63437
z                                   1.6154e-08
xu1.net_1                           0.00554707
xu1.net_3                              1.07558
xu1.sel1_n                             1.63437
xu1.net_0                              1.63437
xu1.net_2                              1.63437
vfix_s#branch                                0
vfix_i1#branch                               0
vin#branch                                   0
vdd#branch                        -8.86327e-12

 Reference value :  4.46142e-08
 Reference value :  1.03754e-07
 Reference value :  1.58396e-07
 Reference value :  2.08539e-07
 Reference value :  2.63834e-07
 Reference value :  3.22696e-07
No. of Data Rows : 68030

  Measurements for Transient Analysis

tplh                =  1.36035e-08 targ=  4.12118e-08 trig=  2.76083e-08
tphl                =  8.60075e-09 targ=  1.13426e-07 trig=  1.04825e-07
i_vdd_avg           =  -1.64227e-06 from=  1.00000e-08 to=  3.30001e-07
power_avg_uw        =  2.68408e+00


Total analysis time (seconds) = 1.95469

Total elapsed time (seconds) = 2.017 

Total DRAM available = 16384.000 MB.
DRAM currently available =   87.516 MB.
Maximum ngspice program size =   16.375 MB.
Current ngspice program size =   16.375 MB.

