
Note: No compatibility mode selected!


Circuit: GF180MCU library cell mux2_1 I0_to_Z__I1=0,S=0

Doing analysis at TEMP = -5.912914 and TNOM = 27.000000

Using SPARSE 1.3 as Direct Linear Solver

Initial Transient Solution
--------------------------

Node                                   Voltage
----                                   -------
vdd                                     1.8132
i0                                           0
i1                                           0
s                                            0
xu1.int04                               1.8132
z                                  9.76028e-09
xu1.net_1                            0.0042136
xu1.net_3                              1.24506
xu1.sel1_n                              1.8132
xu1.net_0                               1.8132
xu1.net_2                               1.8132
vfix_s#branch                                0
vfix_i1#branch                               0
vin#branch                                   0
vdd#branch                        -9.92965e-12

 Reference value :  5.64787e-08
 Reference value :  1.16995e-07
 Reference value :  1.75870e-07
 Reference value :  2.32204e-07
 Reference value :  2.89400e-07
No. of Data Rows : 68032

  Measurements for Transient Analysis

tplh                =  4.80766e-09 targ=  3.31158e-08 trig=  2.83081e-08
tphl                =  4.42400e-09 targ=  1.11348e-07 trig=  1.06924e-07
i_vdd_avg           =  -1.46363e-06 from=  1.00000e-08 to=  3.30005e-07
power_avg_uw        =  2.65384e+00


Total analysis time (seconds) = 1.78461

Total elapsed time (seconds) = 1.842 

Total DRAM available = 16384.000 MB.
DRAM currently available =  124.828 MB.
Maximum ngspice program size =   14.188 MB.
Current ngspice program size =   14.188 MB.

