
Note: No compatibility mode selected!


Circuit: GF180MCU library cell nand3_1 A1_to_ZN__A2=1,A3=1

Doing analysis at TEMP = 117.442300 and TNOM = 27.000000

Using SPARSE 1.3 as Direct Linear Solver

Initial Transient Solution
--------------------------

Node                                   Voltage
----                                   -------
vdd                                    1.89528
a1                                           0
a2                                     1.89528
a3                                     1.89528
xu1.net_1                          8.53371e-09
xu1.net_0                          1.70674e-08
zn                                     1.89528
vfix_a3#branch                               0
vfix_a2#branch                               0
vin#branch                                   0
vdd#branch                        -2.81558e-12

 Reference value :  8.43166e-08
 Reference value :  1.81936e-07
 Reference value :  2.84236e-07
No. of Data Rows : 68032

  Measurements for Transient Analysis

tphl                =  9.82931e-09 targ=  3.59613e-08 trig=  2.61320e-08
tplh                =  1.11689e-08 targ=  1.11565e-07 trig=  1.00396e-07
i_vdd_avg           =  -1.77490e-06 from=  1.00000e-08 to=  3.30001e-07
power_avg_uw        =  3.36393e+00


Total analysis time (seconds) = 1.04702

Total elapsed time (seconds) = 1.112 

Total DRAM available = 16384.000 MB.
DRAM currently available =  114.172 MB.
Maximum ngspice program size =   15.672 MB.
Current ngspice program size =   15.672 MB.

