
Note: No compatibility mode selected!


Circuit: GF180MCU library cell xor2_1 A1_to_Z__A2=0

Doing analysis at TEMP = 69.806159 and TNOM = 27.000000

Using SPARSE 1.3 as Direct Linear Solver

Initial Transient Solution
--------------------------

Node                                   Voltage
----                                   -------
vdd                                    1.92074
a1                                           0
a2                                           0
xu1.i                                  1.92074
z                                  4.44961e-08
xu1.net_0                          1.90882e-08
xu1.net_2                              1.92074
xu1.net_1                              0.70176
vfix_a2#branch                               0
vin#branch                                   0
vdd#branch                        -1.88384e-11

 Reference value :  5.09592e-08
 Reference value :  1.25971e-07
 Reference value :  1.96079e-07
 Reference value :  2.68124e-07
 Reference value :  3.34101e-07
No. of Data Rows : 68030

  Measurements for Transient Analysis

tplh                =  9.74446e-09 targ=  3.91503e-08 trig=  2.94058e-08
tphl                =  4.82280e-09 targ=  1.15040e-07 trig=  1.10218e-07
i_vdd_avg           =  -1.86697e-06 from=  1.00000e-08 to=  3.30001e-07
power_avg_uw        =  3.58596e+00


Total analysis time (seconds) = 1.55973

Total elapsed time (seconds) = 1.665 

Total DRAM available = 16384.000 MB.
DRAM currently available =  108.391 MB.
Maximum ngspice program size =   16.625 MB.
Current ngspice program size =   16.625 MB.

