
Note: No compatibility mode selected!


Circuit: GF180MCU library cell nand2_1 A1_to_ZN__A2=1

Doing analysis at TEMP = -21.512500 and TNOM = 27.000000

Using SPARSE 1.3 as Direct Linear Solver

Initial Transient Solution
--------------------------

Node                                   Voltage
----                                   -------
vdd                                    1.65391
a1                                           0
a2                                     1.65391
xu1.net_0                          1.72904e-12
zn                                     1.65391
vfix_a2#branch                               0
vin#branch                                   0
vdd#branch                        -1.66423e-12

 Reference value :  1.08826e-07
 Reference value :  2.72229e-07
No. of Data Rows : 68034

  Measurements for Transient Analysis

tphl                =  6.83472e-09 targ=  3.51239e-08 trig=  2.82892e-08
tplh                =  1.00965e-08 targ=  1.16964e-07 trig=  1.06867e-07
i_vdd_avg           =  -1.81359e-06 from=  1.00000e-08 to=  3.30004e-07
power_avg_uw        =  2.99951e+00


Total analysis time (seconds) = 0.690579

Total elapsed time (seconds) = 0.770 

Total DRAM available = 16384.000 MB.
DRAM currently available =  183.672 MB.
Maximum ngspice program size =   18.828 MB.
Current ngspice program size =   18.828 MB.

