
Note: No compatibility mode selected!


Circuit: GF180MCU library cell mux2_1 I0_to_Z__I1=0,S=0

Doing analysis at TEMP = 1.487168 and TNOM = 27.000000

Using SPARSE 1.3 as Direct Linear Solver

Initial Transient Solution
--------------------------

Node                                   Voltage
----                                   -------
vdd                                     1.8418
i0                                           0
i1                                           0
s                                            0
xu1.int04                               1.8418
z                                  9.93682e-09
xu1.net_1                           0.00729602
xu1.net_3                              1.28034
xu1.sel1_n                              1.8418
xu1.net_0                               1.8418
xu1.net_2                               1.8418
vfix_s#branch                                0
vfix_i1#branch                               0
vin#branch                                   0
vdd#branch                        -1.01507e-11

 Reference value :  4.42473e-08
 Reference value :  9.99321e-08
 Reference value :  1.54937e-07
 Reference value :  2.12607e-07
 Reference value :  2.63987e-07
 Reference value :  3.19687e-07
No. of Data Rows : 68032

  Measurements for Transient Analysis

tplh                =  3.02633e-09 targ=  2.83312e-08 trig=  2.53049e-08
tphl                =  2.55347e-09 targ=  1.00468e-07 trig=  9.79147e-08
i_vdd_avg           =  -9.22991e-07 from=  1.00000e-08 to=  3.30002e-07
power_avg_uw        =  1.69997e+00


Total analysis time (seconds) = 1.97336

Total elapsed time (seconds) = 2.032 

Total DRAM available = 16384.000 MB.
DRAM currently available =  103.156 MB.
Maximum ngspice program size =   14.922 MB.
Current ngspice program size =   14.922 MB.

