
Note: No compatibility mode selected!


Circuit: GF180MCU library cell nor2_1 A1_to_ZN__A2=0

Doing analysis at TEMP = 115.822090 and TNOM = 27.000000

Using SPARSE 1.3 as Direct Linear Solver

Initial Transient Solution
--------------------------

Node                                   Voltage
----                                   -------
vdd                                    1.85518
a1                                           0
a2                                           0
zn                                     1.85518
xu1.net_0                              1.85518
vfix_a2#branch                               0
vin#branch                                   0
vdd#branch                        -5.40884e-12

 Reference value :  9.25058e-08
 Reference value :  2.44271e-07
No. of Data Rows : 68034

  Measurements for Transient Analysis

tphl                =  1.81143e-09 targ=  2.64631e-08 trig=  2.46516e-08
tplh                =  5.61731e-09 targ=  1.01572e-07 trig=  9.59549e-08
i_vdd_avg           =  -5.24212e-07 from=  1.00000e-08 to=  3.30004e-07
power_avg_uw        =  9.72508e-01


Total analysis time (seconds) = 0.791758

Total elapsed time (seconds) = 0.859 

Total DRAM available = 16384.000 MB.
DRAM currently available =   93.203 MB.
Maximum ngspice program size =   15.406 MB.
Current ngspice program size =   15.406 MB.

