
Note: No compatibility mode selected!


Circuit: GF180MCU library cell oai21_1 A1_to_ZN__A2=0,B=1

Doing analysis at TEMP = 2.554755 and TNOM = 27.000000

Using SPARSE 1.3 as Direct Linear Solver

Initial Transient Solution
--------------------------

Node                                   Voltage
----                                   -------
vdd                                    1.80983
a1                                           0
a2                                           0
b                                      1.80983
zn                                     1.80983
xu1.net_0                          1.97485e-12
xu1.net_1                              1.80983
vfix_b#branch                                0
vfix_a2#branch                               0
vin#branch                                   0
vdd#branch                        -3.63993e-12

 Reference value :  6.62259e-08
 Reference value :  1.76534e-07
 Reference value :  2.81884e-07
No. of Data Rows : 68034

  Measurements for Transient Analysis

tphl                =  8.63343e-09 targ=  3.52001e-08 trig=  2.65667e-08
tplh                =  2.33840e-08 targ=  1.25084e-07 trig=  1.01700e-07
i_vdd_avg           =  -2.18092e-06 from=  1.00000e-08 to=  3.30004e-07
power_avg_uw        =  3.94711e+00


Total analysis time (seconds) = 1.07729

Total elapsed time (seconds) = 1.168 

Total DRAM available = 16384.000 MB.
DRAM currently available =  110.438 MB.
Maximum ngspice program size =   19.094 MB.
Current ngspice program size =   19.094 MB.

