
Note: No compatibility mode selected!


Circuit: GF180MCU library cell nand3_1 A1_to_ZN__A2=1,A3=1

Doing analysis at TEMP = 22.767456 and TNOM = 27.000000

Using SPARSE 1.3 as Direct Linear Solver

Initial Transient Solution
--------------------------

Node                                   Voltage
----                                   -------
vdd                                    1.85789
a1                                           0
a2                                     1.85789
a3                                     1.85789
xu1.net_1                          7.92059e-12
xu1.net_0                          1.58412e-11
zn                                     1.85789
vfix_a3#branch                               0
vfix_a2#branch                               0
vin#branch                                   0
vdd#branch                        -1.86894e-12

 Reference value :  7.54876e-08
 Reference value :  1.82173e-07
 Reference value :  2.80473e-07
No. of Data Rows : 68032

  Measurements for Transient Analysis

tphl                =  1.15669e-08 targ=  3.81795e-08 trig=  2.66126e-08
tplh                =  1.41012e-08 targ=  1.15939e-07 trig=  1.01838e-07
i_vdd_avg           =  -2.23893e-06 from=  1.00000e-08 to=  3.30003e-07
power_avg_uw        =  4.15967e+00


Total analysis time (seconds) = 1.07528

Total elapsed time (seconds) = 1.148 

Total DRAM available = 16384.000 MB.
DRAM currently available =   88.500 MB.
Maximum ngspice program size =   16.562 MB.
Current ngspice program size =   16.562 MB.

