
Note: No compatibility mode selected!


Circuit: GF180MCU library cell nand2_1 A1_to_ZN__A2=1

Doing analysis at TEMP = 32.192327 and TNOM = 27.000000

Using SPARSE 1.3 as Direct Linear Solver

Initial Transient Solution
--------------------------

Node                                   Voltage
----                                   -------
vdd                                    1.67352
a1                                           0
a2                                     1.67352
xu1.net_0                          7.38168e-09
zn                                     1.67352
vfix_a2#branch                               0
vin#branch                                   0
vdd#branch                        -3.24837e-12

 Reference value :  1.21038e-07
 Reference value :  2.88053e-07
No. of Data Rows : 68032

  Measurements for Transient Analysis

tphl                =  1.83636e-09 targ=  2.66740e-08 trig=  2.48376e-08
tplh                =  2.58853e-09 targ=  9.91015e-08 trig=  9.65129e-08
i_vdd_avg           =  -8.32800e-07 from=  1.00000e-08 to=  3.30003e-07
power_avg_uw        =  1.39371e+00


Total analysis time (seconds) = 0.655422

Total elapsed time (seconds) = 0.725 

Total DRAM available = 16384.000 MB.
DRAM currently available =  120.531 MB.
Maximum ngspice program size =   18.953 MB.
Current ngspice program size =   18.953 MB.

