
Note: No compatibility mode selected!


Circuit: GF180MCU library cell inv_4 I_to_ZN

Doing analysis at TEMP = 66.078887 and TNOM = 27.000000

Using SPARSE 1.3 as Direct Linear Solver

Initial Transient Solution
--------------------------

Node                                   Voltage
----                                   -------
vdd                                    1.91978
i                                            0
zn                                     1.91978
vin#branch                                   0
vdd#branch                        -6.65199e-11

 Reference value :  8.70833e-08
 Reference value :  1.84663e-07
 Reference value :  2.96954e-07
No. of Data Rows : 68032

  Measurements for Transient Analysis

tphl                =  6.95076e-10 targ=  3.06230e-08 trig=  2.99279e-08
tplh                =  2.83724e-09 targ=  1.14621e-07 trig=  1.11784e-07
i_vdd_avg           =  -2.01311e-06 from=  1.00000e-08 to=  3.30004e-07
power_avg_uw        =  3.86473e+00


Total analysis time (seconds) = 0.997636

Total elapsed time (seconds) = 1.047 

Total DRAM available = 16384.000 MB.
DRAM currently available =   99.906 MB.
Maximum ngspice program size =   14.109 MB.
Current ngspice program size =   14.109 MB.

