
Note: No compatibility mode selected!


Circuit: GF180MCU library cell nor2_1 A1_to_ZN__A2=0

Doing analysis at TEMP = 60.698749 and TNOM = 27.000000

Using SPARSE 1.3 as Direct Linear Solver

Initial Transient Solution
--------------------------

Node                                   Voltage
----                                   -------
vdd                                    1.73754
a1                                           0
a2                                           0
zn                                     1.73754
xu1.net_0                              1.73754
vfix_a2#branch                               0
vin#branch                                   0
vdd#branch                        -4.45893e-12

 Reference value :  1.03759e-07
 Reference value :  2.55524e-07
No. of Data Rows : 68032

  Measurements for Transient Analysis

tphl                =  4.89907e-09 targ=  3.31696e-08 trig=  2.82705e-08
tplh                =  1.25152e-08 targ=  1.19327e-07 trig=  1.06812e-07
i_vdd_avg           =  -1.43495e-06 from=  1.00000e-08 to=  3.30005e-07
power_avg_uw        =  2.49329e+00


Total analysis time (seconds) = 0.761137

Total elapsed time (seconds) = 0.823 

Total DRAM available = 16384.000 MB.
DRAM currently available =  131.391 MB.
Maximum ngspice program size =   16.156 MB.
Current ngspice program size =   16.156 MB.

