
Note: No compatibility mode selected!


Circuit: GF180MCU library cell mux2_1 I0_to_Z__I1=0,S=0

Doing analysis at TEMP = -29.132328 and TNOM = 27.000000

Using SPARSE 1.3 as Direct Linear Solver

Initial Transient Solution
--------------------------

Node                                   Voltage
----                                   -------
vdd                                    1.85049
i0                                           0
i1                                           0
s                                            0
xu1.int04                              1.85049
z                                  6.90084e-09
xu1.net_1                           0.00905069
xu1.net_3                              1.32701
xu1.sel1_n                             1.85049
xu1.net_0                              1.85049
xu1.net_2                              1.85049
vfix_s#branch                                0
vfix_i1#branch                               0
vin#branch                                   0
vdd#branch                        -1.03232e-11

 Reference value :  5.41949e-08
 Reference value :  1.17937e-07
 Reference value :  1.75542e-07
 Reference value :  2.28695e-07
 Reference value :  2.80057e-07
 Reference value :  3.38137e-07
No. of Data Rows : 68030

  Measurements for Transient Analysis

tplh                =  4.00769e-09 targ=  3.13989e-08 trig=  2.73912e-08
tphl                =  3.39295e-09 targ=  1.07567e-07 trig=  1.04174e-07
i_vdd_avg           =  -2.31752e-06 from=  1.00000e-08 to=  3.30002e-07
power_avg_uw        =  4.28855e+00


Total analysis time (seconds) = 1.85201

Total elapsed time (seconds) = 1.918 

Total DRAM available = 16384.000 MB.
DRAM currently available =  103.156 MB.
Maximum ngspice program size =   13.312 MB.
Current ngspice program size =   13.312 MB.

