
Note: No compatibility mode selected!


Circuit: GF180MCU library cell aoi21_1 A1_to_ZN__A2=1,B=0

Doing analysis at TEMP = 37.971688 and TNOM = 27.000000

Using SPARSE 1.3 as Direct Linear Solver

Initial Transient Solution
--------------------------

Node                                   Voltage
----                                   -------
vdd                                    1.93932
a1                                           0
a2                                     1.93932
b                                            0
xu1.net_0                          3.13045e-11
zn                                     1.93932
xu1.net_1                              1.93932
vfix_b#branch                                0
vfix_a2#branch                               0
vin#branch                                   0
vdd#branch                        -3.90864e-12

 Reference value :  7.02465e-08
 Reference value :  1.82070e-07
 Reference value :  2.91205e-07
No. of Data Rows : 68032

  Measurements for Transient Analysis

tphl                =  4.36603e-09 targ=  3.03130e-08 trig=  2.59470e-08
tplh                =  1.07349e-08 targ=  1.10576e-07 trig=  9.98410e-08
i_vdd_avg           =  -1.19146e-06 from=  1.00000e-08 to=  3.30000e-07
power_avg_uw        =  2.31062e+00


Total analysis time (seconds) = 1.01204

Total elapsed time (seconds) = 1.078 

Total DRAM available = 16384.000 MB.
DRAM currently available =  104.328 MB.
Maximum ngspice program size =   15.688 MB.
Current ngspice program size =   15.688 MB.

