
Note: No compatibility mode selected!


Circuit: GF180MCU library cell inv_4 I_to_ZN

Doing analysis at TEMP = -39.303748 and TNOM = 27.000000

Using SPARSE 1.3 as Direct Linear Solver

Initial Transient Solution
--------------------------

Node                                   Voltage
----                                   -------
vdd                                    1.65968
i                                            0
zn                                     1.65968
vin#branch                                   0
vdd#branch                        -6.67874e-12

 Reference value :  1.07423e-07
 Reference value :  2.18675e-07
 Reference value :  3.14323e-07
No. of Data Rows : 68034

  Measurements for Transient Analysis

tphl                =  1.26924e-09 targ=  2.59882e-08 trig=  2.47189e-08
tplh                =  2.86423e-09 targ=  9.90211e-08 trig=  9.61568e-08
i_vdd_avg           =  -1.41873e-06 from=  1.00000e-08 to=  3.30003e-07
power_avg_uw        =  2.35464e+00


Total analysis time (seconds) = 0.900212

Total elapsed time (seconds) = 0.952 

Total DRAM available = 16384.000 MB.
DRAM currently available =  140.766 MB.
Maximum ngspice program size =   14.750 MB.
Current ngspice program size =   14.750 MB.

