
Note: No compatibility mode selected!


Circuit: GF180MCU library cell oai21_1 A1_to_ZN__A2=0,B=1

Doing analysis at TEMP = 29.244693 and TNOM = 27.000000

Using SPARSE 1.3 as Direct Linear Solver

Initial Transient Solution
--------------------------

Node                                   Voltage
----                                   -------
vdd                                    1.82432
a1                                           0
a2                                           0
b                                      1.82432
zn                                     1.82432
xu1.net_0                          2.97224e-11
xu1.net_1                              1.82432
vfix_b#branch                                0
vfix_a2#branch                               0
vin#branch                                   0
vdd#branch                        -3.67241e-12

 Reference value :  7.74577e-08
 Reference value :  1.75578e-07
 Reference value :  2.84088e-07
No. of Data Rows : 68032

  Measurements for Transient Analysis

tphl                =  7.42448e-09 targ=  3.72471e-08 trig=  2.98226e-08
tplh                =  1.66045e-08 targ=  1.28072e-07 trig=  1.11468e-07
i_vdd_avg           =  -1.32070e-06 from=  1.00000e-08 to=  3.30003e-07
power_avg_uw        =  2.40939e+00


Total analysis time (seconds) = 1.06301

Total elapsed time (seconds) = 1.138 

Total DRAM available = 16384.000 MB.
DRAM currently available =   71.203 MB.
Maximum ngspice program size =   18.984 MB.
Current ngspice program size =   18.984 MB.

