
Note: No compatibility mode selected!


Circuit: GF180MCU library cell aoi21_4 A1_to_ZN__A2=1,B=0

Doing analysis at TEMP = 60.207863 and TNOM = 27.000000

Using SPARSE 1.3 as Direct Linear Solver

Initial Transient Solution
--------------------------

Node                                   Voltage
----                                   -------
vdd                                    1.87365
a1                                           0
a2                                     1.87365
b                                            0
xu1.net_0_0                        2.77059e-09
zn                                     1.87365
xu1.net_0_1                        2.77059e-09
xu1.net_0_2                        2.77059e-09
xu1.net_0_3                        2.77059e-09
xu1.net_1                              1.87365
vfix_b#branch                                0
vfix_a2#branch                               0
vin#branch                                   0
vdd#branch                        -1.92193e-11

 Reference value :  1.77614e-08
 Reference value :  4.53225e-08
 Reference value :  7.28625e-08
 Reference value :  9.96025e-08
 Reference value :  1.26697e-07
 Reference value :  1.53562e-07
 Reference value :  1.81132e-07
 Reference value :  2.09467e-07
 Reference value :  2.37207e-07
 Reference value :  2.64692e-07
 Reference value :  2.92492e-07
 Reference value :  3.19517e-07
No. of Data Rows : 68032

  Measurements for Transient Analysis

tphl                =  1.88810e-09 targ=  2.74106e-08 trig=  2.55225e-08
tplh                =  4.14651e-09 targ=  1.02714e-07 trig=  9.85674e-08
i_vdd_avg           =  -2.35524e-06 from=  1.00000e-08 to=  3.30002e-07
power_avg_uw        =  4.41290e+00


Total analysis time (seconds) = 3.73281

Total elapsed time (seconds) = 3.826 

Total DRAM available = 16384.000 MB.
DRAM currently available =  170.703 MB.
Maximum ngspice program size =   16.688 MB.
Current ngspice program size =   16.688 MB.

