
Note: No compatibility mode selected!


Circuit: GF180MCU library cell mux2_1 I0_to_Z__I1=0,S=0

Doing analysis at TEMP = 84.199375 and TNOM = 27.000000

Using SPARSE 1.3 as Direct Linear Solver

Initial Transient Solution
--------------------------

Node                                   Voltage
----                                   -------
vdd                                     1.9098
i0                                           0
i1                                           0
s                                            0
xu1.int04                               1.9098
z                                   1.2586e-08
xu1.net_1                            0.0477733
xu1.net_3                               1.4321
xu1.sel1_n                              1.9098
xu1.net_0                               1.9098
xu1.net_2                               1.9098
vfix_s#branch                                0
vfix_i1#branch                               0
vin#branch                                   0
vdd#branch                        -2.69841e-11

 Reference value :  3.56304e-08
 Reference value :  9.02404e-08
 Reference value :  1.39263e-07
 Reference value :  1.91060e-07
 Reference value :  2.42905e-07
 Reference value :  2.97548e-07
No. of Data Rows : 68034

  Measurements for Transient Analysis

tplh                =  5.31618e-09 targ=  3.25551e-08 trig=  2.72389e-08
tphl                =  4.28547e-09 targ=  1.08002e-07 trig=  1.03717e-07
i_vdd_avg           =  -1.80170e-06 from=  1.00000e-08 to=  3.30003e-07
power_avg_uw        =  3.44089e+00


Total analysis time (seconds) = 1.77052

Total elapsed time (seconds) = 1.863 

Total DRAM available = 16384.000 MB.
DRAM currently available =  204.750 MB.
Maximum ngspice program size =   18.328 MB.
Current ngspice program size =   18.328 MB.

