
Note: No compatibility mode selected!


Circuit: GF180MCU library cell xor2_1 A1_to_Z__A2=0

Doing analysis at TEMP = -15.954371 and TNOM = 27.000000

Using SPARSE 1.3 as Direct Linear Solver

Initial Transient Solution
--------------------------

Node                                   Voltage
----                                   -------
vdd                                    1.86054
a1                                           0
a2                                           0
xu1.i                                  1.86054
z                                  3.26332e-08
xu1.net_0                          6.63814e-11
xu1.net_2                              1.86054
xu1.net_1                             0.836688
vfix_a2#branch                               0
vin#branch                                   0
vdd#branch                        -1.05861e-11

 Reference value :  3.98779e-08
 Reference value :  1.03513e-07
 Reference value :  1.65113e-07
 Reference value :  2.27743e-07
 Reference value :  2.88813e-07
No. of Data Rows : 68032

  Measurements for Transient Analysis

tplh                =  2.27792e-09 targ=  3.14306e-08 trig=  2.91527e-08
tphl                =  3.13177e-09 targ=  1.12590e-07 trig=  1.09458e-07
i_vdd_avg           =  -4.12796e-07 from=  1.00000e-08 to=  3.30003e-07
power_avg_uw        =  7.68025e-01


Total analysis time (seconds) = 1.50378

Total elapsed time (seconds) = 1.600 

Total DRAM available = 16384.000 MB.
DRAM currently available =  142.719 MB.
Maximum ngspice program size =   15.750 MB.
Current ngspice program size =   15.750 MB.

