
Note: No compatibility mode selected!


Circuit: GF180MCU library cell oai21_4 A1_to_ZN__A2=0,B=1

Doing analysis at TEMP = -16.241331 and TNOM = 27.000000

Using SPARSE 1.3 as Direct Linear Solver

Initial Transient Solution
--------------------------

Node                                   Voltage
----                                   -------
vdd                                    1.79441
a1                                           0
a2                                           0
b                                      1.79441
zn                                     1.79441
xu1.net_0                          6.14196e-12
xu1.net_1_0                            1.79441
xu1.net_1_1                            1.79441
xu1.net_1_2                            1.79441
xu1.net_1_3                            1.79441
vfix_b#branch                                0
vfix_a2#branch                               0
vin#branch                                   0
vdd#branch                        -1.44402e-11

 Reference value :  1.87364e-08
 Reference value :  4.73087e-08
 Reference value :  7.66887e-08
 Reference value :  1.05245e-07
 Reference value :  1.33455e-07
 Reference value :  1.62090e-07
 Reference value :  1.92679e-07
 Reference value :  2.20074e-07
 Reference value :  2.47779e-07
 Reference value :  2.75685e-07
 Reference value :  3.03085e-07
 Reference value :  3.32300e-07
No. of Data Rows : 68032

  Measurements for Transient Analysis

tphl                =  1.77606e-09 targ=  2.76517e-08 trig=  2.58756e-08
tplh                =  3.86917e-09 targ=  1.03496e-07 trig=  9.96268e-08
i_vdd_avg           =  -1.73600e-06 from=  1.00000e-08 to=  3.30005e-07
power_avg_uw        =  3.11510e+00


Total analysis time (seconds) = 3.30843

Total elapsed time (seconds) = 3.398 

Total DRAM available = 16384.000 MB.
DRAM currently available =  170.969 MB.
Maximum ngspice program size =   17.812 MB.
Current ngspice program size =   17.812 MB.

