
Note: No compatibility mode selected!


Circuit: GF180MCU library cell aoi21_1 A1_to_ZN__A2=1,B=0

Doing analysis at TEMP = 91.091113 and TNOM = 27.000000

Using SPARSE 1.3 as Direct Linear Solver

Initial Transient Solution
--------------------------

Node                                   Voltage
----                                   -------
vdd                                    1.70946
a1                                           0
a2                                     1.70946
b                                            0
xu1.net_0                          2.04604e-08
zn                                     1.70946
xu1.net_1                              1.70946
vfix_b#branch                                0
vfix_a2#branch                               0
vin#branch                                   0
vdd#branch                        -9.57546e-12

 Reference value :  6.45511e-08
 Reference value :  1.63710e-07
 Reference value :  2.53341e-07
No. of Data Rows : 68034

  Measurements for Transient Analysis

tphl                =  4.06141e-09 targ=  3.25857e-08 trig=  2.85243e-08
tplh                =  8.20326e-09 targ=  1.15776e-07 trig=  1.07573e-07
i_vdd_avg           =  -7.60936e-07 from=  1.00000e-08 to=  3.30005e-07
power_avg_uw        =  1.30079e+00


Total analysis time (seconds) = 1.02513

Total elapsed time (seconds) = 1.099 

Total DRAM available = 16384.000 MB.
DRAM currently available =  153.062 MB.
Maximum ngspice program size =   16.266 MB.
Current ngspice program size =   16.266 MB.

