
Note: No compatibility mode selected!


Circuit: GF180MCU library cell xor2_4 A1_to_Z__A2=0

Doing analysis at TEMP = -7.151147 and TNOM = 27.000000

Using SPARSE 1.3 as Direct Linear Solver

Initial Transient Solution
--------------------------

Node                                   Voltage
----                                   -------
vdd                                    1.78186
a1                                           0
a2                                           0
xu1.net_2                           0.00376643
xu1.i                                  1.78186
xu1.net_0                          1.69787e-11
xu1.z_neg                              1.78186
z                                  9.78264e-09
xu1.net_1                              1.78186
vfix_a2#branch                               0
vin#branch                                   0
vdd#branch                        -1.29066e-11

 Reference value :  2.46151e-08
 Reference value :  5.93201e-08
 Reference value :  9.36601e-08
 Reference value :  1.29203e-07
 Reference value :  1.65178e-07
 Reference value :  1.98910e-07
 Reference value :  2.33745e-07
 Reference value :  2.68903e-07
 Reference value :  3.03608e-07
 Reference value :  3.38648e-07
No. of Data Rows : 68034

  Measurements for Transient Analysis

tplh                =  9.29311e-10 targ=  2.52006e-08 trig=  2.42713e-08
tphl                =  1.56951e-09 targ=  9.63834e-08 trig=  9.48139e-08
i_vdd_avg           =  -4.99942e-07 from=  1.00000e-08 to=  3.30003e-07
power_avg_uw        =  8.90826e-01


Total analysis time (seconds) = 2.75696

Total elapsed time (seconds) = 2.839 

Total DRAM available = 16384.000 MB.
DRAM currently available =  100.391 MB.
Maximum ngspice program size =   16.828 MB.
Current ngspice program size =   16.828 MB.

