
Note: No compatibility mode selected!


Circuit: GF180MCU library cell mux2_1 I0_to_Z__I1=0,S=0

Doing analysis at TEMP = 39.383323 and TNOM = 27.000000

Using SPARSE 1.3 as Direct Linear Solver

Initial Transient Solution
--------------------------

Node                                   Voltage
----                                   -------
vdd                                    1.64698
i0                                           0
i1                                           0
s                                            0
xu1.int04                              1.64698
z                                  1.15165e-08
xu1.net_1                            0.0305497
xu1.net_3                              1.18194
xu1.sel1_n                             1.64698
xu1.net_0                              1.64698
xu1.net_2                              1.64698
vfix_s#branch                                0
vfix_i1#branch                               0
vin#branch                                   0
vdd#branch                        -1.01332e-11

 Reference value :  4.46515e-08
 Reference value :  1.08672e-07
 Reference value :  1.64966e-07
 Reference value :  2.16257e-07
 Reference value :  2.65982e-07
 Reference value :  3.14971e-07
No. of Data Rows : 68032

  Measurements for Transient Analysis

tplh                =  3.99534e-09 targ=  3.37024e-08 trig=  2.97070e-08
tphl                =  4.89153e-09 targ=  1.16013e-07 trig=  1.11121e-07
i_vdd_avg           =  -7.48609e-07 from=  1.00000e-08 to=  3.30001e-07
power_avg_uw        =  1.23294e+00


Total analysis time (seconds) = 1.75682

Total elapsed time (seconds) = 1.828 

Total DRAM available = 16384.000 MB.
DRAM currently available =  116.125 MB.
Maximum ngspice program size =   17.453 MB.
Current ngspice program size =   17.453 MB.

