
Note: No compatibility mode selected!


Circuit: GF180MCU library cell mux2_4 I0_to_Z__I1=0,S=0

Doing analysis at TEMP = 26.833831 and TNOM = 27.000000

Using SPARSE 1.3 as Direct Linear Solver

Initial Transient Solution
--------------------------

Node                                   Voltage
----                                   -------
vdd                                      1.979
i0                                           0
i1                                           0
s                                            0
xu1.int04                                1.979
z                                  1.05269e-08
xu1.net_1                           0.00973628
xu1.net_3                              1.35615
xu1.sel1_n                               1.979
xu1.net_0                                1.979
xu1.net_2                                1.979
vfix_s#branch                                0
vfix_i1#branch                               0
vin#branch                                   0
vdd#branch                        -1.71597e-11

 Reference value :  3.12825e-08
 Reference value :  7.49294e-08
 Reference value :  1.12606e-07
 Reference value :  1.48556e-07
 Reference value :  1.83281e-07
 Reference value :  2.19679e-07
 Reference value :  2.55719e-07
 Reference value :  2.90906e-07
 Reference value :  3.25571e-07
No. of Data Rows : 68030

  Measurements for Transient Analysis

tplh                =  2.74060e-09 targ=  3.09766e-08 trig=  2.82360e-08
tphl                =  3.55555e-09 targ=  1.10263e-07 trig=  1.06708e-07
i_vdd_avg           =  -2.70064e-06 from=  1.00000e-08 to=  3.30001e-07
power_avg_uw        =  5.34457e+00


Total analysis time (seconds) = 2.61006

Total elapsed time (seconds) = 2.677 

Total DRAM available = 16384.000 MB.
DRAM currently available =  114.984 MB.
Maximum ngspice program size =   17.234 MB.
Current ngspice program size =   17.234 MB.

