
Note: No compatibility mode selected!


Circuit: GF180MCU library cell oai21_1 A1_to_ZN__A2=0,B=1

Doing analysis at TEMP = -9.591107 and TNOM = 27.000000

Using SPARSE 1.3 as Direct Linear Solver

Initial Transient Solution
--------------------------

Node                                   Voltage
----                                   -------
vdd                                    1.90563
a1                                           0
a2                                           0
b                                      1.90563
zn                                     1.90563
xu1.net_0                          1.26226e-11
xu1.net_1                              1.90563
vfix_b#branch                                0
vfix_a2#branch                               0
vin#branch                                   0
vdd#branch                        -3.83393e-12

 Reference value :  6.43138e-08
 Reference value :  1.58080e-07
 Reference value :  2.52469e-07
No. of Data Rows : 68030

  Measurements for Transient Analysis

tphl                =  2.28426e-09 targ=  3.07374e-08 trig=  2.84531e-08
tplh                =  4.54275e-09 targ=  1.11902e-07 trig=  1.07359e-07
i_vdd_avg           =  -4.53209e-07 from=  1.00000e-08 to=  3.30000e-07
power_avg_uw        =  8.63648e-01


Total analysis time (seconds) = 1.00311

Total elapsed time (seconds) = 1.097 

Total DRAM available = 16384.000 MB.
DRAM currently available =   75.156 MB.
Maximum ngspice program size =   17.484 MB.
Current ngspice program size =   17.484 MB.

