
Note: No compatibility mode selected!


Circuit: GF180MCU library cell oai21_1 A1_to_ZN__A2=0,B=1

Doing analysis at TEMP = -19.479734 and TNOM = 27.000000

Using SPARSE 1.3 as Direct Linear Solver

Initial Transient Solution
--------------------------

Node                                   Voltage
----                                   -------
vdd                                    1.77955
a1                                           0
a2                                           0
b                                      1.77955
zn                                     1.77955
xu1.net_0                           4.2255e-12
xu1.net_1                              1.77955
vfix_b#branch                                0
vfix_a2#branch                               0
vin#branch                                   0
vdd#branch                        -3.57994e-12

 Reference value :  7.27370e-08
 Reference value :  1.73716e-07
 Reference value :  2.66517e-07
No. of Data Rows : 68032

  Measurements for Transient Analysis

tphl                =  4.25576e-09 targ=  3.15505e-08 trig=  2.72947e-08
tplh                =  9.51196e-09 targ=  1.13396e-07 trig=  1.03884e-07
i_vdd_avg           =  -1.28854e-06 from=  1.00000e-08 to=  3.30001e-07
power_avg_uw        =  2.29303e+00


Total analysis time (seconds) = 0.931474

Total elapsed time (seconds) = 1.008 

Total DRAM available = 16384.000 MB.
DRAM currently available =  192.078 MB.
Maximum ngspice program size =   16.578 MB.
Current ngspice program size =   16.578 MB.

