
Note: No compatibility mode selected!


Circuit: GF180MCU library cell mux2_1 I0_to_Z__I1=0,S=0

Doing analysis at TEMP = 123.389070 and TNOM = 27.000000

Using SPARSE 1.3 as Direct Linear Solver

Initial Transient Solution
--------------------------

Node                                   Voltage
----                                   -------
vdd                                    1.83109
i0                                           0
i1                                           0
s                                            0
xu1.int04                              1.83108
z                                  1.66284e-08
xu1.net_1                             0.050894
xu1.net_3                              1.37353
xu1.sel1_n                             1.83109
xu1.net_0                              1.83109
xu1.net_2                              1.83109
vfix_s#branch                                0
vfix_i1#branch                               0
vin#branch                                   0
vdd#branch                        -1.10494e-10

 Reference value :  3.55269e-08
 Reference value :  8.84919e-08
 Reference value :  1.41111e-07
 Reference value :  1.92787e-07
 Reference value :  2.46242e-07
 Reference value :  2.99916e-07
No. of Data Rows : 68032

  Measurements for Transient Analysis

tplh                =  7.10497e-09 targ=  3.37822e-08 trig=  2.66772e-08
tphl                =  4.99102e-09 targ=  1.07023e-07 trig=  1.02032e-07
i_vdd_avg           =  -2.12148e-06 from=  1.00000e-08 to=  3.30001e-07
power_avg_uw        =  3.88462e+00


Total analysis time (seconds) = 1.78694

Total elapsed time (seconds) = 1.868 

Total DRAM available = 16384.000 MB.
DRAM currently available =   85.234 MB.
Maximum ngspice program size =   18.141 MB.
Current ngspice program size =   18.141 MB.

