
Note: No compatibility mode selected!


Circuit: GF180MCU library cell aoi21_1 A1_to_ZN__A2=1,B=0

Doing analysis at TEMP = -33.081453 and TNOM = 27.000000

Using SPARSE 1.3 as Direct Linear Solver

Initial Transient Solution
--------------------------

Node                                   Voltage
----                                   -------
vdd                                    1.74179
a1                                           0
a2                                     1.74179
b                                            0
xu1.net_0                          3.91013e-13
zn                                     1.74179
xu1.net_1                              1.74179
vfix_b#branch                                0
vfix_a2#branch                               0
vin#branch                                   0
vdd#branch                        -3.50379e-12

 Reference value :  5.57129e-08
 Reference value :  1.51153e-07
 Reference value :  2.46753e-07
No. of Data Rows : 68032

  Measurements for Transient Analysis

tphl                =  3.76855e-09 targ=  3.04037e-08 trig=  2.66352e-08
tplh                =  8.71332e-09 targ=  1.10619e-07 trig=  1.01906e-07
i_vdd_avg           =  -1.14361e-06 from=  1.00000e-08 to=  3.30003e-07
power_avg_uw        =  1.99192e+00


Total analysis time (seconds) = 0.981828

Total elapsed time (seconds) = 1.071 

Total DRAM available = 16384.000 MB.
DRAM currently available =  142.719 MB.
Maximum ngspice program size =   15.688 MB.
Current ngspice program size =   15.688 MB.

