
Note: No compatibility mode selected!


Circuit: GF180MCU library cell mux2_1 I0_to_Z__I1=0,S=0

Doing analysis at TEMP = -28.293965 and TNOM = 27.000000

Using SPARSE 1.3 as Direct Linear Solver

Initial Transient Solution
--------------------------

Node                                   Voltage
----                                   -------
vdd                                    1.92307
i0                                           0
i1                                           0
s                                            0
xu1.int04                              1.92307
z                                  8.91071e-09
xu1.net_1                          0.000525427
xu1.net_3                               1.2974
xu1.sel1_n                             1.92307
xu1.net_0                              1.92307
xu1.net_2                              1.92307
vfix_s#branch                                0
vfix_i1#branch                               0
vin#branch                                   0
vdd#branch                        -1.04482e-11

 Reference value :  3.30308e-08
 Reference value :  8.54858e-08
 Reference value :  1.35599e-07
 Reference value :  1.84633e-07
 Reference value :  2.35526e-07
 Reference value :  2.88434e-07
 Reference value :  3.39119e-07
No. of Data Rows : 68034

  Measurements for Transient Analysis

tplh                =  3.80493e-09 targ=  2.91541e-08 trig=  2.53492e-08
tphl                =  2.81548e-09 targ=  1.00863e-07 trig=  9.80475e-08
i_vdd_avg           =  -1.48351e-06 from=  1.00000e-08 to=  3.30004e-07
power_avg_uw        =  2.85289e+00


Total analysis time (seconds) = 1.87025

Total elapsed time (seconds) = 1.957 

Total DRAM available = 16384.000 MB.
DRAM currently available =   84.219 MB.
Maximum ngspice program size =   17.828 MB.
Current ngspice program size =   17.828 MB.

