
Note: No compatibility mode selected!


Circuit: GF180MCU library cell nor2_1 A1_to_ZN__A2=0

Doing analysis at TEMP = 100.398100 and TNOM = 27.000000

Using SPARSE 1.3 as Direct Linear Solver

Initial Transient Solution
--------------------------

Node                                   Voltage
----                                   -------
vdd                                    1.96086
a1                                           0
a2                                           0
zn                                     1.96086
xu1.net_0                              1.96086
vfix_a2#branch                               0
vin#branch                                   0
vdd#branch                         -1.4643e-11

 Reference value :  8.47654e-08
 Reference value :  2.19140e-07
No. of Data Rows : 68034

  Measurements for Transient Analysis

tphl                =  3.51489e-09 targ=  3.00514e-08 trig=  2.65365e-08
tplh                =  9.13704e-09 targ=  1.10746e-07 trig=  1.01609e-07
i_vdd_avg           =  -1.53862e-06 from=  1.00000e-08 to=  3.30003e-07
power_avg_uw        =  3.01702e+00


Total analysis time (seconds) = 0.737066

Total elapsed time (seconds) = 0.827 

Total DRAM available = 16384.000 MB.
DRAM currently available =   63.438 MB.
Maximum ngspice program size =   18.797 MB.
Current ngspice program size =   18.797 MB.

