
Note: No compatibility mode selected!


Circuit: GF180MCU library cell mux2_1 I0_to_Z__I1=0,S=0

Doing analysis at TEMP = 59.008184 and TNOM = 27.000000

Using SPARSE 1.3 as Direct Linear Solver

Initial Transient Solution
--------------------------

Node                                   Voltage
----                                   -------
vdd                                    1.69681
i0                                           0
i1                                           0
s                                            0
xu1.int04                              1.69681
z                                  1.20093e-08
xu1.net_1                            0.0398087
xu1.net_3                               1.2447
xu1.sel1_n                             1.69681
xu1.net_0                              1.69681
xu1.net_2                              1.69681
vfix_s#branch                                0
vfix_i1#branch                               0
vin#branch                                   0
vdd#branch                        -1.30787e-11

 Reference value :  3.31309e-08
 Reference value :  8.46509e-08
 Reference value :  1.36529e-07
 Reference value :  1.87748e-07
 Reference value :  2.39811e-07
 Reference value :  2.92764e-07
No. of Data Rows : 68034

  Measurements for Transient Analysis

tplh                =  1.93528e-09 targ=  3.00370e-08 trig=  2.81017e-08
tphl                =  3.29785e-09 targ=  1.09603e-07 trig=  1.06305e-07
i_vdd_avg           =  -2.99314e-07 from=  1.00000e-08 to=  3.30004e-07
power_avg_uw        =  5.07879e-01


Total analysis time (seconds) = 1.99595

Total elapsed time (seconds) = 2.088 

Total DRAM available = 16384.000 MB.
DRAM currently available =  240.906 MB.
Maximum ngspice program size =   18.375 MB.
Current ngspice program size =   18.375 MB.

