
Note: No compatibility mode selected!


Circuit: GF180MCU library cell nand2_4 A1_to_ZN__A2=1

Doing analysis at TEMP = 110.527530 and TNOM = 27.000000

Using SPARSE 1.3 as Direct Linear Solver

Initial Transient Solution
--------------------------

Node                                   Voltage
----                                   -------
vdd                                    1.94819
a1                                           0
a2                                     1.94819
xu1.net_0_0                        5.65775e-08
zn                                     1.94819
xu1.net_0_1                        5.65775e-08
xu1.net_0_2                        5.65775e-08
xu1.net_0_3                        5.65775e-08
vfix_a2#branch                               0
vin#branch                                   0
vdd#branch                        -4.31818e-11

 Reference value :  2.77125e-08
 Reference value :  6.95539e-08
 Reference value :  1.10105e-07
 Reference value :  1.51435e-07
 Reference value :  1.93124e-07
 Reference value :  2.33454e-07
 Reference value :  2.71770e-07
 Reference value :  3.11825e-07
No. of Data Rows : 68030

  Measurements for Transient Analysis

tphl                =  1.71836e-09 targ=  2.85266e-08 trig=  2.68082e-08
tplh                =  2.55331e-09 targ=  1.04978e-07 trig=  1.02425e-07
i_vdd_avg           =  -1.59295e-06 from=  1.00000e-08 to=  3.30000e-07
power_avg_uw        =  3.10337e+00


Total analysis time (seconds) = 2.28991

Total elapsed time (seconds) = 2.398 

Total DRAM available = 16384.000 MB.
DRAM currently available =   75.156 MB.
Maximum ngspice program size =   17.562 MB.
Current ngspice program size =   17.562 MB.

