
Note: No compatibility mode selected!


Circuit: GF180MCU library cell xor2_4 A1_to_Z__A2=0

Doing analysis at TEMP = 36.186713 and TNOM = 27.000000

Using SPARSE 1.3 as Direct Linear Solver

Initial Transient Solution
--------------------------

Node                                   Voltage
----                                   -------
vdd                                    1.71698
a1                                           0
a2                                           0
xu1.net_2                            0.0292247
xu1.i                                  1.71698
xu1.net_0                          9.67572e-10
xu1.z_neg                              1.71698
z                                  1.12437e-08
xu1.net_1                              1.71698
vfix_a2#branch                               0
vin#branch                                   0
vdd#branch                         -1.2721e-11

 Reference value :  2.49175e-08
 Reference value :  6.05798e-08
 Reference value :  9.94098e-08
 Reference value :  1.41077e-07
 Reference value :  1.85828e-07
 Reference value :  2.37580e-07
 Reference value :  2.94767e-07
No. of Data Rows : 68030

  Measurements for Transient Analysis

tplh                =  1.73424e-09 targ=  2.73179e-08 trig=  2.55837e-08
tphl                =  2.59255e-09 targ=  1.01344e-07 trig=  9.87510e-08
i_vdd_avg           =  -6.41879e-07 from=  1.00000e-08 to=  3.30002e-07
power_avg_uw        =  1.10210e+00


Total analysis time (seconds) = 1.8879

Total elapsed time (seconds) = 1.971 

Total DRAM available = 16384.000 MB.
DRAM currently available =  263.703 MB.
Maximum ngspice program size =   18.188 MB.
Current ngspice program size =   18.188 MB.

