
Note: No compatibility mode selected!


Circuit: GF180MCU library cell nand2_4 A1_to_ZN__A2=1

Doing analysis at TEMP = -4.807820 and TNOM = 27.000000

Using SPARSE 1.3 as Direct Linear Solver

Initial Transient Solution
--------------------------

Node                                   Voltage
----                                   -------
vdd                                    1.64638
a1                                           0
a2                                     1.64638
xu1.net_0_0                        1.14034e-11
zn                                     1.64638
xu1.net_0_1                        1.14034e-11
xu1.net_0_2                        1.14034e-11
xu1.net_0_3                        1.14034e-11
vfix_a2#branch                               0
vin#branch                                   0
vdd#branch                        -6.63331e-12

 Reference value :  2.66575e-08
 Reference value :  6.81879e-08
 Reference value :  1.09288e-07
 Reference value :  1.52783e-07
 Reference value :  1.91458e-07
 Reference value :  2.33138e-07
 Reference value :  2.74258e-07
 Reference value :  3.14943e-07
No. of Data Rows : 68032

  Measurements for Transient Analysis

tphl                =  2.15524e-09 targ=  3.05454e-08 trig=  2.83902e-08
tplh                =  3.56919e-09 targ=  1.10740e-07 trig=  1.07171e-07
i_vdd_avg           =  -8.34007e-07 from=  1.00000e-08 to=  3.30003e-07
power_avg_uw        =  1.37310e+00


Total analysis time (seconds) = 2.3484

Total elapsed time (seconds) = 2.429 

Total DRAM available = 16384.000 MB.
DRAM currently available =  118.719 MB.
Maximum ngspice program size =   14.578 MB.
Current ngspice program size =   14.578 MB.

