
Note: No compatibility mode selected!


Circuit: GF180MCU library cell xor2_1 A1_to_Z__A2=0

Doing analysis at TEMP = 116.358000 and TNOM = 27.000000

Using SPARSE 1.3 as Direct Linear Solver

Initial Transient Solution
--------------------------

Node                                   Voltage
----                                   -------
vdd                                    1.93126
a1                                           0
a2                                           0
xu1.i                                  1.93126
z                                  5.29133e-08
xu1.net_0                          2.61374e-08
xu1.net_2                              1.93126
xu1.net_1                             0.627747
vfix_a2#branch                               0
vin#branch                                   0
vdd#branch                        -8.72362e-11

 Reference value :  3.42508e-08
 Reference value :  9.42308e-08
 Reference value :  1.53474e-07
 Reference value :  2.16981e-07
 Reference value :  2.73984e-07
 Reference value :  3.32539e-07
No. of Data Rows : 68034

  Measurements for Transient Analysis

tplh                =  1.32515e-08 targ=  3.97931e-08 trig=  2.65416e-08
tphl                =  4.67454e-09 targ=  1.06299e-07 trig=  1.01625e-07
i_vdd_avg           =  -2.39937e-06 from=  1.00000e-08 to=  3.30004e-07
power_avg_uw        =  4.63382e+00


Total analysis time (seconds) = 1.58107

Total elapsed time (seconds) = 1.673 

Total DRAM available = 16384.000 MB.
DRAM currently available =  114.984 MB.
Maximum ngspice program size =   17.906 MB.
Current ngspice program size =   17.906 MB.

