
Note: No compatibility mode selected!


Circuit: GF180MCU library cell inv_1 I_to_ZN

Doing analysis at TEMP = -24.007804 and TNOM = 27.000000

Using SPARSE 1.3 as Direct Linear Solver

Initial Transient Solution
--------------------------

Node                                   Voltage
----                                   -------
vdd                                    1.78184
i                                            0
zn                                     1.78184
vin#branch                                   0
vdd#branch                        -1.79209e-12

 Reference value :  1.34161e-07
No. of Data Rows : 68030

  Measurements for Transient Analysis

tphl                =  1.53442e-09 targ=  2.69678e-08 trig=  2.54334e-08
tplh                =  2.80353e-09 targ=  1.01104e-07 trig=  9.83003e-08
i_vdd_avg           =  -6.67592e-07 from=  1.00000e-08 to=  3.30001e-07
power_avg_uw        =  1.18954e+00


Total analysis time (seconds) = 0.486678

Total elapsed time (seconds) = 0.577 

Total DRAM available = 16384.000 MB.
DRAM currently available =  118.719 MB.
Maximum ngspice program size =   19.453 MB.
Current ngspice program size =   19.453 MB.

