
Note: No compatibility mode selected!


Circuit: GF180MCU library cell xor2_4 A1_to_Z__A2=0

Doing analysis at TEMP = 59.063385 and TNOM = 27.000000

Using SPARSE 1.3 as Direct Linear Solver

Initial Transient Solution
--------------------------

Node                                   Voltage
----                                   -------
vdd                                    1.82967
a1                                           0
a2                                           0
xu1.net_2                            0.0412085
xu1.i                                  1.82967
xu1.net_0                          5.17101e-09
xu1.z_neg                              1.82967
z                                  1.17506e-08
xu1.net_1                              1.82967
vfix_a2#branch                               0
vin#branch                                   0
vdd#branch                        -1.45847e-11

 Reference value :  2.45875e-08
 Reference value :  6.05035e-08
 Reference value :  9.61035e-08
 Reference value :  1.31915e-07
 Reference value :  1.68470e-07
 Reference value :  2.05734e-07
 Reference value :  2.42804e-07
 Reference value :  2.81535e-07
 Reference value :  3.18815e-07
No. of Data Rows : 68032

  Measurements for Transient Analysis

tplh                =  2.88072e-09 targ=  3.21437e-08 trig=  2.92630e-08
tphl                =  4.52878e-09 targ=  1.14318e-07 trig=  1.09789e-07
i_vdd_avg           =  -1.80917e-06 from=  1.00000e-08 to=  3.30005e-07
power_avg_uw        =  3.31018e+00


Total analysis time (seconds) = 2.56854

Total elapsed time (seconds) = 2.648 

Total DRAM available = 16384.000 MB.
DRAM currently available =  204.750 MB.
Maximum ngspice program size =   16.594 MB.
Current ngspice program size =   16.594 MB.

