
Note: No compatibility mode selected!


Circuit: GF180MCU library cell nor2_1 A1_to_ZN__A2=0

Doing analysis at TEMP = 77.628652 and TNOM = 27.000000

Using SPARSE 1.3 as Direct Linear Solver

Initial Transient Solution
--------------------------

Node                                   Voltage
----                                   -------
vdd                                    1.88383
a1                                           0
a2                                           0
zn                                     1.88383
xu1.net_0                              1.88383
vfix_a2#branch                               0
vin#branch                                   0
vdd#branch                        -6.72628e-12

 Reference value :  8.99695e-08
 Reference value :  2.23090e-07
No. of Data Rows : 68030

  Measurements for Transient Analysis

tphl                =  5.80773e-09 targ=  3.44462e-08 trig=  2.86385e-08
tplh                =  1.49051e-08 targ=  1.22821e-07 trig=  1.07916e-07
i_vdd_avg           =  -2.22952e-06 from=  1.00000e-08 to=  3.30002e-07
power_avg_uw        =  4.20004e+00


Total analysis time (seconds) = 0.696192

Total elapsed time (seconds) = 0.783 

Total DRAM available = 16384.000 MB.
DRAM currently available =  240.906 MB.
Maximum ngspice program size =   18.781 MB.
Current ngspice program size =   18.781 MB.

