
Note: No compatibility mode selected!


Circuit: GF180MCU library cell xor2_1 A1_to_Z__A2=0

Doing analysis at TEMP = 49.406470 and TNOM = 27.000000

Using SPARSE 1.3 as Direct Linear Solver

Initial Transient Solution
--------------------------

Node                                   Voltage
----                                   -------
vdd                                    1.68697
a1                                           0
a2                                           0
xu1.i                                  1.68697
z                                  4.24602e-08
xu1.net_0                          1.27947e-08
xu1.net_2                              1.68697
xu1.net_1                             0.677255
vfix_a2#branch                               0
vin#branch                                   0
vdd#branch                         -1.1794e-11

 Reference value :  3.97951e-08
 Reference value :  1.00975e-07
 Reference value :  1.65323e-07
 Reference value :  2.37305e-07
 Reference value :  3.17658e-07
No. of Data Rows : 68034

  Measurements for Transient Analysis

tplh                =  3.97750e-09 targ=  3.11188e-08 trig=  2.71413e-08
tphl                =  3.12385e-09 targ=  1.06548e-07 trig=  1.03424e-07
i_vdd_avg           =  -4.68572e-07 from=  1.00000e-08 to=  3.30003e-07
power_avg_uw        =  7.90465e-01


Total analysis time (seconds) = 1.2706

Total elapsed time (seconds) = 1.358 

Total DRAM available = 16384.000 MB.
DRAM currently available =  255.156 MB.
Maximum ngspice program size =   18.094 MB.
Current ngspice program size =   18.094 MB.

