
Note: No compatibility mode selected!


Circuit: GF180MCU library cell mux2_4 I0_to_Z__I1=0,S=0

Doing analysis at TEMP = 102.567940 and TNOM = 27.000000

Using SPARSE 1.3 as Direct Linear Solver

Initial Transient Solution
--------------------------

Node                                   Voltage
----                                   -------
vdd                                    1.77352
i0                                           0
i1                                           0
s                                            0
xu1.int04                              1.77352
z                                  1.39293e-08
xu1.net_1                             0.044999
xu1.net_3                              1.28674
xu1.sel1_n                             1.77352
xu1.net_0                              1.77352
xu1.net_2                              1.77352
vfix_s#branch                                0
vfix_i1#branch                               0
vin#branch                                   0
vdd#branch                        -2.69532e-11

 Reference value :  2.32464e-08
 Reference value :  6.00251e-08
 Reference value :  9.68701e-08
 Reference value :  1.32473e-07
 Reference value :  1.69888e-07
 Reference value :  2.07555e-07
 Reference value :  2.43685e-07
 Reference value :  2.81148e-07
 Reference value :  3.20543e-07
No. of Data Rows : 68034

  Measurements for Transient Analysis

tplh                =  2.57445e-09 targ=  2.97758e-08 trig=  2.72013e-08
tphl                =  3.48326e-09 targ=  1.07087e-07 trig=  1.03604e-07
i_vdd_avg           =  -1.39255e-06 from=  1.00000e-08 to=  3.30003e-07
power_avg_uw        =  2.46971e+00


Total analysis time (seconds) = 2.45794

Total elapsed time (seconds) = 2.551 

Total DRAM available = 16384.000 MB.
DRAM currently available =  207.828 MB.
Maximum ngspice program size =   18.422 MB.
Current ngspice program size =   18.422 MB.

