
Note: No compatibility mode selected!


Circuit: GF180MCU library cell nand3_4 A1_to_ZN__A2=1,A3=1

Doing analysis at TEMP = 116.541220 and TNOM = 27.000000

Using SPARSE 1.3 as Direct Linear Solver

Initial Transient Solution
--------------------------

Node                                   Voltage
----                                   -------
vdd                                    1.87036
a1                                           0
a2                                     1.87036
a3                                     1.87036
xu1.net_1_3                        7.83863e-08
xu1.net_0                          1.56773e-07
xu1.net_1_2                        7.83863e-08
xu1.net_1_1                        7.83863e-08
xu1.net_1_0                        7.83863e-08
xu1.net_0_0                        1.56773e-07
zn                                     1.87036
vfix_a3#branch                               0
vfix_a2#branch                               0
vin#branch                                   0
vdd#branch                        -5.35677e-11

 Reference value :  1.91114e-08
 Reference value :  4.79589e-08
 Reference value :  7.72239e-08
 Reference value :  1.03814e-07
 Reference value :  1.31335e-07
 Reference value :  1.60905e-07
 Reference value :  1.88023e-07
 Reference value :  2.15249e-07
 Reference value :  2.44244e-07
 Reference value :  2.72460e-07
 Reference value :  3.00045e-07
 Reference value :  3.27695e-07
No. of Data Rows : 68030

  Measurements for Transient Analysis

tphl                =  1.15792e-09 targ=  2.92936e-08 trig=  2.81357e-08
tplh                =  2.18480e-09 targ=  1.08592e-07 trig=  1.06407e-07
i_vdd_avg           =  -6.23905e-07 from=  1.00000e-08 to=  3.30000e-07
power_avg_uw        =  1.16693e+00


Total analysis time (seconds) = 3.60175

Total elapsed time (seconds) = 3.680 

Total DRAM available = 16384.000 MB.
DRAM currently available =  228.844 MB.
Maximum ngspice program size =   15.859 MB.
Current ngspice program size =   15.859 MB.

