
Note: No compatibility mode selected!


Circuit: GF180MCU library cell oai21_1 A1_to_ZN__A2=0,B=1

Doing analysis at TEMP = 61.920139 and TNOM = 27.000000

Using SPARSE 1.3 as Direct Linear Solver

Initial Transient Solution
--------------------------

Node                                   Voltage
----                                   -------
vdd                                    1.84894
a1                                           0
a2                                           0
b                                      1.84894
zn                                     1.84894
xu1.net_0                          6.26918e-09
xu1.net_1                              1.84894
vfix_b#branch                                0
vfix_a2#branch                               0
vin#branch                                   0
vdd#branch                        -4.75597e-12

 Reference value :  6.65547e-08
 Reference value :  1.60167e-07
 Reference value :  2.51465e-07
No. of Data Rows : 68030

  Measurements for Transient Analysis

tphl                =  6.62532e-09 targ=  3.65614e-08 trig=  2.99361e-08
tplh                =  1.41609e-08 targ=  1.25969e-07 trig=  1.11808e-07
i_vdd_avg           =  -1.89668e-06 from=  1.00000e-08 to=  3.30002e-07
power_avg_uw        =  3.50684e+00


Total analysis time (seconds) = 1.03942

Total elapsed time (seconds) = 1.119 

Total DRAM available = 16384.000 MB.
DRAM currently available =  113.125 MB.
Maximum ngspice program size =   14.734 MB.
Current ngspice program size =   14.734 MB.

