
Note: No compatibility mode selected!


Circuit: GF180MCU library cell nor2_1 A1_to_ZN__A2=0

Doing analysis at TEMP = 55.494522 and TNOM = 27.000000

Using SPARSE 1.3 as Direct Linear Solver

Initial Transient Solution
--------------------------

Node                                   Voltage
----                                   -------
vdd                                    1.68944
a1                                           0
a2                                           0
zn                                     1.68944
xu1.net_0                              1.68944
vfix_a2#branch                               0
vin#branch                                   0
vdd#branch                        -4.06659e-12

 Reference value :  7.98468e-08
 Reference value :  2.11477e-07
No. of Data Rows : 68032

  Measurements for Transient Analysis

tphl                =  9.57551e-10 targ=  2.52772e-08 trig=  2.43197e-08
tplh                =  3.11394e-09 targ=  9.80729e-08 trig=  9.49590e-08
i_vdd_avg           =  -3.74709e-07 from=  1.00000e-08 to=  3.30001e-07
power_avg_uw        =  6.33050e-01


Total analysis time (seconds) = 0.740198

Total elapsed time (seconds) = 0.820 

Total DRAM available = 16384.000 MB.
DRAM currently available =   84.219 MB.
Maximum ngspice program size =   15.594 MB.
Current ngspice program size =   15.594 MB.

