
Note: No compatibility mode selected!


Circuit: GF180MCU library cell xor2_4 A1_to_Z__A2=0

Doing analysis at TEMP = -16.408809 and TNOM = 27.000000

Using SPARSE 1.3 as Direct Linear Solver

Initial Transient Solution
--------------------------

Node                                   Voltage
----                                   -------
vdd                                    1.86995
a1                                           0
a2                                           0
xu1.net_2                           0.00173229
xu1.i                                  1.86995
xu1.net_0                          5.90749e-12
xu1.z_neg                              1.86995
z                                  9.34699e-09
xu1.net_1                              1.86995
vfix_a2#branch                               0
vin#branch                                   0
vdd#branch                        -1.35394e-11

 Reference value :  2.48875e-08
 Reference value :  6.04471e-08
 Reference value :  9.59671e-08
 Reference value :  1.33497e-07
 Reference value :  1.69197e-07
 Reference value :  2.05392e-07
 Reference value :  2.41667e-07
 Reference value :  2.78547e-07
 Reference value :  3.15507e-07
No. of Data Rows : 68032

  Measurements for Transient Analysis

tplh                =  2.84458e-09 targ=  3.13269e-08 trig=  2.84823e-08
tphl                =  4.11060e-09 targ=  1.11558e-07 trig=  1.07447e-07
i_vdd_avg           =  -2.20097e-06 from=  1.00000e-08 to=  3.30002e-07
power_avg_uw        =  4.11571e+00


Total analysis time (seconds) = 2.85474

Total elapsed time (seconds) = 2.936 

Total DRAM available = 16384.000 MB.
DRAM currently available =  228.844 MB.
Maximum ngspice program size =   15.172 MB.
Current ngspice program size =   15.172 MB.

