
Note: No compatibility mode selected!


Circuit: GF180MCU library cell aoi21_1 A1_to_ZN__A2=1,B=0

Doing analysis at TEMP = 35.528131 and TNOM = 27.000000

Using SPARSE 1.3 as Direct Linear Solver

Initial Transient Solution
--------------------------

Node                                   Voltage
----                                   -------
vdd                                    1.93597
a1                                           0
a2                                     1.93597
b                                            0
xu1.net_0                          4.34098e-10
zn                                     1.93597
xu1.net_1                              1.93597
vfix_b#branch                                0
vfix_a2#branch                               0
vin#branch                                   0
vdd#branch                         -4.0782e-12

 Reference value :  6.50580e-08
 Reference value :  1.60144e-07
 Reference value :  2.58448e-07
No. of Data Rows : 68032

  Measurements for Transient Analysis

tphl                =  3.87785e-09 targ=  2.92406e-08 trig=  2.53628e-08
tplh                =  9.50922e-09 targ=  1.07597e-07 trig=  9.80883e-08
i_vdd_avg           =  -1.77419e-06 from=  1.00000e-08 to=  3.30004e-07
power_avg_uw        =  3.43477e+00


Total analysis time (seconds) = 1.0108

Total elapsed time (seconds) = 1.105 

Total DRAM available = 16384.000 MB.
DRAM currently available =  118.719 MB.
Maximum ngspice program size =   18.250 MB.
Current ngspice program size =   18.250 MB.

