
Note: No compatibility mode selected!


Circuit: GF180MCU library cell aoi21_4 A1_to_ZN__A2=1,B=0

Doing analysis at TEMP = -6.084245 and TNOM = 27.000000

Using SPARSE 1.3 as Direct Linear Solver

Initial Transient Solution
--------------------------

Node                                   Voltage
----                                   -------
vdd                                    1.68671
a1                                           0
a2                                     1.68671
b                                            0
xu1.net_0_0                        9.81027e-12
zn                                     1.68671
xu1.net_0_1                        9.80967e-12
xu1.net_0_2                        9.81027e-12
xu1.net_0_3                        9.80967e-12
xu1.net_1                              1.68671
vfix_b#branch                                0
vfix_a2#branch                               0
vin#branch                                   0
vdd#branch                        -1.35905e-11

 Reference value :  1.79664e-08
 Reference value :  4.47548e-08
 Reference value :  7.21848e-08
 Reference value :  9.96648e-08
 Reference value :  1.26027e-07
 Reference value :  1.52832e-07
 Reference value :  1.79347e-07
 Reference value :  2.07395e-07
 Reference value :  2.35450e-07
 Reference value :  2.64485e-07
 Reference value :  2.94232e-07
 Reference value :  3.22282e-07
No. of Data Rows : 68030

  Measurements for Transient Analysis

tphl                =  2.69673e-09 targ=  3.08804e-08 trig=  2.81837e-08
tplh                =  5.19509e-09 targ=  1.11746e-07 trig=  1.06551e-07
i_vdd_avg           =  -1.47770e-06 from=  1.00000e-08 to=  3.30002e-07
power_avg_uw        =  2.49245e+00


Total analysis time (seconds) = 3.37772

Total elapsed time (seconds) = 3.477 

Total DRAM available = 16384.000 MB.
DRAM currently available =  232.062 MB.
Maximum ngspice program size =   18.141 MB.
Current ngspice program size =   18.141 MB.

