
Note: No compatibility mode selected!


Circuit: GF180MCU library cell inv_4 I_to_ZN

Doing analysis at TEMP = 22.074705 and TNOM = 27.000000

Using SPARSE 1.3 as Direct Linear Solver

Initial Transient Solution
--------------------------

Node                                   Voltage
----                                   -------
vdd                                    1.81251
i                                            0
zn                                     1.81251
vin#branch                                   0
vdd#branch                        -7.39397e-12

 Reference value :  5.01492e-08
 Reference value :  1.24751e-07
 Reference value :  2.04499e-07
 Reference value :  2.79881e-07
No. of Data Rows : 68030

  Measurements for Transient Analysis

tphl                =  2.43869e-09 targ=  3.14420e-08 trig=  2.90033e-08
tplh                =  4.53036e-09 targ=  1.13540e-07 trig=  1.09010e-07
i_vdd_avg           =  -2.22845e-06 from=  1.00000e-08 to=  3.30001e-07
power_avg_uw        =  4.03910e+00


Total analysis time (seconds) = 1.37846

Total elapsed time (seconds) = 1.466 

Total DRAM available = 16384.000 MB.
DRAM currently available =  228.844 MB.
Maximum ngspice program size =   18.969 MB.
Current ngspice program size =   18.969 MB.

