
Note: No compatibility mode selected!


Circuit: GF180MCU library cell aoi21_4 A1_to_ZN__A2=1,B=0

Doing analysis at TEMP = 108.280190 and TNOM = 27.000000

Using SPARSE 1.3 as Direct Linear Solver

Initial Transient Solution
--------------------------

Node                                   Voltage
----                                   -------
vdd                                    1.94477
a1                                           0
a2                                     1.94477
b                                            0
xu1.net_0_0                         5.0278e-08
zn                                     1.94477
xu1.net_0_1                         5.0278e-08
xu1.net_0_2                         5.0278e-08
xu1.net_0_3                         5.0278e-08
xu1.net_1                              1.94477
vfix_b#branch                                0
vfix_a2#branch                               0
vin#branch                                   0
vdd#branch                        -8.25174e-11

 Reference value :  1.66714e-08
 Reference value :  4.35830e-08
 Reference value :  7.10880e-08
 Reference value :  9.71980e-08
 Reference value :  1.24174e-07
 Reference value :  1.52029e-07
 Reference value :  1.80259e-07
 Reference value :  2.07628e-07
 Reference value :  2.36323e-07
 Reference value :  2.63783e-07
 Reference value :  2.90644e-07
 Reference value :  3.18624e-07
No. of Data Rows : 68032

  Measurements for Transient Analysis

tphl                =  1.33781e-09 targ=  2.82131e-08 trig=  2.68753e-08
tplh                =  2.82124e-09 targ=  1.05447e-07 trig=  1.02626e-07
i_vdd_avg           =  -1.11655e-06 from=  1.00000e-08 to=  3.30004e-07
power_avg_uw        =  2.17143e+00


Total analysis time (seconds) = 3.46288

Total elapsed time (seconds) = 3.564 

Total DRAM available = 16384.000 MB.
DRAM currently available =  114.547 MB.
Maximum ngspice program size =   17.828 MB.
Current ngspice program size =   17.828 MB.

