
Note: No compatibility mode selected!


Circuit: GF180MCU library cell nor2_4 A1_to_ZN__A2=0

Doing analysis at TEMP = 89.509942 and TNOM = 27.000000

Using SPARSE 1.3 as Direct Linear Solver

Initial Transient Solution
--------------------------

Node                                   Voltage
----                                   -------
vdd                                    1.75678
a1                                           0
a2                                           0
zn                                     1.75678
xu1.net_0_0                            1.75678
xu1.net_0_1                            1.75678
xu1.net_0_2                            1.75678
xu1.net_0_3                            1.75678
vfix_a2#branch                               0
vin#branch                                   0
vdd#branch                        -3.60209e-11

 Reference value :  2.36964e-08
 Reference value :  6.31351e-08
 Reference value :  1.02493e-07
 Reference value :  1.41968e-07
 Reference value :  1.82023e-07
 Reference value :  2.22045e-07
 Reference value :  2.62923e-07
 Reference value :  3.02758e-07
No. of Data Rows : 68034

  Measurements for Transient Analysis

tphl                =  4.53339e-10 targ=  2.60371e-08 trig=  2.55838e-08
tplh                =  1.13167e-09 targ=  9.98830e-08 trig=  9.87514e-08
i_vdd_avg           =  -2.27723e-07 from=  1.00000e-08 to=  3.30003e-07
power_avg_uw        =  4.00060e-01


Total analysis time (seconds) = 2.40735

Total elapsed time (seconds) = 2.495 

Total DRAM available = 16384.000 MB.
DRAM currently available =  142.719 MB.
Maximum ngspice program size =   18.203 MB.
Current ngspice program size =   18.203 MB.

