
Note: No compatibility mode selected!


Circuit: GF180MCU library cell oai21_1 A1_to_ZN__A2=0,B=1

Doing analysis at TEMP = 81.881652 and TNOM = 27.000000

Using SPARSE 1.3 as Direct Linear Solver

Initial Transient Solution
--------------------------

Node                                   Voltage
----                                   -------
vdd                                    1.65466
a1                                           0
a2                                           0
b                                      1.65466
zn                                     1.65466
xu1.net_0                          2.40659e-08
xu1.net_1                              1.65466
vfix_b#branch                                0
vfix_a2#branch                               0
vin#branch                                   0
vdd#branch                        -6.61358e-12

 Reference value :  6.26650e-08
 Reference value :  1.55107e-07
 Reference value :  2.52300e-07
No. of Data Rows : 68030

  Measurements for Transient Analysis

tphl                =  3.17305e-09 targ=  2.87468e-08 trig=  2.55737e-08
tplh                =  7.76920e-09 targ=  1.06490e-07 trig=  9.87212e-08
i_vdd_avg           =  -8.10754e-07 from=  1.00000e-08 to=  3.30002e-07
power_avg_uw        =  1.34152e+00


Total analysis time (seconds) = 0.951922

Total elapsed time (seconds) = 1.030 

Total DRAM available = 16384.000 MB.
DRAM currently available =  240.906 MB.
Maximum ngspice program size =   18.266 MB.
Current ngspice program size =   18.266 MB.

