
Note: No compatibility mode selected!


Circuit: GF180MCU library cell xor2_4 A1_to_Z__A2=0

Doing analysis at TEMP = 70.238504 and TNOM = 27.000000

Using SPARSE 1.3 as Direct Linear Solver

Initial Transient Solution
--------------------------

Node                                   Voltage
----                                   -------
vdd                                    1.65866
a1                                           0
a2                                           0
xu1.net_2                            0.0423832
xu1.i                                  1.65866
xu1.net_0                          1.15324e-08
xu1.z_neg                              1.65866
z                                  1.24872e-08
xu1.net_1                              1.65866
vfix_a2#branch                               0
vin#branch                                   0
vdd#branch                        -1.45082e-11

 Reference value :  2.50625e-08
 Reference value :  6.35393e-08
 Reference value :  9.99543e-08
 Reference value :  1.36371e-07
 Reference value :  1.74026e-07
 Reference value :  2.08454e-07
 Reference value :  2.44714e-07
 Reference value :  2.81936e-07
 Reference value :  3.17541e-07
No. of Data Rows : 68030

  Measurements for Transient Analysis

tplh                =  3.96577e-09 targ=  3.13817e-08 trig=  2.74159e-08
tphl                =  4.65329e-09 targ=  1.08901e-07 trig=  1.04248e-07
i_vdd_avg           =  -2.25483e-06 from=  1.00000e-08 to=  3.30001e-07
power_avg_uw        =  3.73999e+00


Total analysis time (seconds) = 2.59982

Total elapsed time (seconds) = 2.672 

Total DRAM available = 16384.000 MB.
DRAM currently available =   85.234 MB.
Maximum ngspice program size =   15.891 MB.
Current ngspice program size =   15.891 MB.

