
Note: No compatibility mode selected!


Circuit: GF180MCU library cell inv_4 I_to_ZN

Doing analysis at TEMP = 97.860742 and TNOM = 27.000000

Using SPARSE 1.3 as Direct Linear Solver

Initial Transient Solution
--------------------------

Node                                   Voltage
----                                   -------
vdd                                    1.69022
i                                            0
zn                                     1.69022
vin#branch                                   0
vdd#branch                         -2.3179e-11

 Reference value :  5.18326e-08
 Reference value :  1.24478e-07
 Reference value :  2.02308e-07
 Reference value :  2.79543e-07
No. of Data Rows : 68032

  Measurements for Transient Analysis

tphl                =  1.35882e-09 targ=  2.80539e-08 trig=  2.66950e-08
tplh                =  2.49645e-09 targ=  1.04582e-07 trig=  1.02085e-07
i_vdd_avg           =  -1.01172e-06 from=  1.00000e-08 to=  3.30003e-07
power_avg_uw        =  1.71004e+00


Total analysis time (seconds) = 1.26828

Total elapsed time (seconds) = 1.340 

Total DRAM available = 16384.000 MB.
DRAM currently available =  204.750 MB.
Maximum ngspice program size =   17.406 MB.
Current ngspice program size =   17.406 MB.

