
Note: No compatibility mode selected!


Circuit: GF180MCU library cell nor2_4 A1_to_ZN__A2=0

Doing analysis at TEMP = -22.056432 and TNOM = 27.000000

Using SPARSE 1.3 as Direct Linear Solver

Initial Transient Solution
--------------------------

Node                                   Voltage
----                                   -------
vdd                                    1.94121
a1                                           0
a2                                           0
zn                                     1.94121
xu1.net_0_0                            1.94121
xu1.net_0_1                            1.94121
xu1.net_0_2                            1.94121
xu1.net_0_3                            1.94121
vfix_a2#branch                               0
vin#branch                                   0
vdd#branch                         -1.5613e-11

 Reference value :  2.48475e-08
 Reference value :  6.49418e-08
 Reference value :  1.06707e-07
 Reference value :  1.46661e-07
 Reference value :  1.88833e-07
 Reference value :  2.29192e-07
 Reference value :  2.70911e-07
 Reference value :  3.10996e-07
No. of Data Rows : 68032

  Measurements for Transient Analysis

tphl                =  1.47778e-09 targ=  2.88874e-08 trig=  2.74097e-08
tplh                =  3.14220e-09 targ=  1.07371e-07 trig=  1.04229e-07
i_vdd_avg           =  -1.22006e-06 from=  1.00000e-08 to=  3.30001e-07
power_avg_uw        =  2.36839e+00


Total analysis time (seconds) = 2.33641

Total elapsed time (seconds) = 2.435 

Total DRAM available = 16384.000 MB.
DRAM currently available =  138.516 MB.
Maximum ngspice program size =   16.891 MB.
Current ngspice program size =   16.891 MB.

