
Note: No compatibility mode selected!


Circuit: GF180MCU library cell aoi21_1 A1_to_ZN__A2=1,B=0

Doing analysis at TEMP = 14.446347 and TNOM = 27.000000

Using SPARSE 1.3 as Direct Linear Solver

Initial Transient Solution
--------------------------

Node                                   Voltage
----                                   -------
vdd                                    1.90716
a1                                           0
a2                                     1.90716
b                                            0
xu1.net_0                          7.09551e-11
zn                                     1.90716
xu1.net_1                              1.90716
vfix_b#branch                                0
vfix_a2#branch                               0
vin#branch                                   0
vdd#branch                        -3.86701e-12

 Reference value :  8.43768e-08
 Reference value :  1.94257e-07
 Reference value :  2.94791e-07
No. of Data Rows : 68032

  Measurements for Transient Analysis

tphl                =  4.19097e-09 targ=  2.84156e-08 trig=  2.42247e-08
tplh                =  1.11658e-08 targ=  1.05840e-07 trig=  9.46740e-08
i_vdd_avg           =  -2.19325e-06 from=  1.00000e-08 to=  3.30001e-07
power_avg_uw        =  4.18289e+00


Total analysis time (seconds) = 0.896885

Total elapsed time (seconds) = 0.960 

Total DRAM available = 16384.000 MB.
DRAM currently available =  215.750 MB.
Maximum ngspice program size =   18.797 MB.
Current ngspice program size =   18.797 MB.

