
Note: No compatibility mode selected!


Circuit: GF180MCU library cell nand3_4 A1_to_ZN__A2=1,A3=1

Doing analysis at TEMP = -7.715850 and TNOM = 27.000000

Using SPARSE 1.3 as Direct Linear Solver

Initial Transient Solution
--------------------------

Node                                   Voltage
----                                   -------
vdd                                    1.94693
a1                                           0
a2                                     1.94693
a3                                     1.94693
xu1.net_1_3                         7.6745e-12
xu1.net_0                          1.53489e-11
xu1.net_1_2                        7.67448e-12
xu1.net_1_1                         7.6745e-12
xu1.net_1_0                        7.67446e-12
xu1.net_0_0                        1.53489e-11
zn                                     1.94693
vfix_a3#branch                               0
vfix_a2#branch                               0
vin#branch                                   0
vdd#branch                        -7.83435e-12

 Reference value :  2.41675e-08
 Reference value :  5.44457e-08
 Reference value :  8.42907e-08
 Reference value :  1.12261e-07
 Reference value :  1.40604e-07
 Reference value :  1.67599e-07
 Reference value :  1.95926e-07
 Reference value :  2.23036e-07
 Reference value :  2.50061e-07
 Reference value :  2.78179e-07
 Reference value :  3.05224e-07
 Reference value :  3.31424e-07
No. of Data Rows : 68034

  Measurements for Transient Analysis

tphl                =  3.02500e-09 targ=  3.26091e-08 trig=  2.95841e-08
tplh                =  4.54383e-09 targ=  1.15296e-07 trig=  1.10752e-07
i_vdd_avg           =  -2.10006e-06 from=  1.00000e-08 to=  3.30004e-07
power_avg_uw        =  4.08867e+00


Total analysis time (seconds) = 3.38851

Total elapsed time (seconds) = 3.470 

Total DRAM available = 16384.000 MB.
DRAM currently available =  100.391 MB.
Maximum ngspice program size =   19.156 MB.
Current ngspice program size =   19.156 MB.

