
Note: No compatibility mode selected!


Circuit: GF180MCU library cell oai21_4 A1_to_ZN__A2=0,B=1

Doing analysis at TEMP = 106.458810 and TNOM = 27.000000

Using SPARSE 1.3 as Direct Linear Solver

Initial Transient Solution
--------------------------

Node                                   Voltage
----                                   -------
vdd                                    1.81457
a1                                           0
a2                                           0
b                                      1.81457
zn                                     1.81457
xu1.net_0                          9.37601e-08
xu1.net_1_0                            1.81457
xu1.net_1_1                            1.81457
xu1.net_1_2                            1.81457
xu1.net_1_3                            1.81457
vfix_b#branch                                0
vfix_a2#branch                               0
vin#branch                                   0
vdd#branch                        -6.89629e-11

 Reference value :  1.90564e-08
 Reference value :  4.75937e-08
 Reference value :  7.53987e-08
 Reference value :  1.07550e-07
 Reference value :  1.41475e-07
 Reference value :  1.79385e-07
 Reference value :  2.20439e-07
 Reference value :  2.65680e-07
 Reference value :  3.14765e-07
No. of Data Rows : 68032

  Measurements for Transient Analysis

tphl                =  1.39663e-09 targ=  2.75848e-08 trig=  2.61881e-08
tplh                =  2.92103e-09 targ=  1.03485e-07 trig=  1.00564e-07
i_vdd_avg           =  -1.02633e-06 from=  1.00000e-08 to=  3.30005e-07
power_avg_uw        =  1.86235e+00


Total analysis time (seconds) = 2.32658

Total elapsed time (seconds) = 2.416 

Total DRAM available = 16384.000 MB.
DRAM currently available =  280.688 MB.
Maximum ngspice program size =   17.797 MB.
Current ngspice program size =   17.797 MB.

