
Note: No compatibility mode selected!


Circuit: GF180MCU library cell inv_1 I_to_ZN

Doing analysis at TEMP = 113.374000 and TNOM = 27.000000

Using SPARSE 1.3 as Direct Linear Solver

Initial Transient Solution
--------------------------

Node                                   Voltage
----                                   -------
vdd                                     1.9373
i                                            0
zn                                      1.9373
vin#branch                                   0
vdd#branch                        -1.20835e-11

 Reference value :  1.45388e-07
No. of Data Rows : 68034

  Measurements for Transient Analysis

tphl                =  2.11329e-09 targ=  2.81972e-08 trig=  2.60839e-08
tplh                =  3.75051e-09 targ=  1.04002e-07 trig=  1.00252e-07
i_vdd_avg           =  -1.01911e-06 from=  1.00000e-08 to=  3.30003e-07
power_avg_uw        =  1.97432e+00


Total analysis time (seconds) = 0.453171

Total elapsed time (seconds) = 0.544 

Total DRAM available = 16384.000 MB.
DRAM currently available =  138.516 MB.
Maximum ngspice program size =   17.969 MB.
Current ngspice program size =   17.969 MB.

