
Note: No compatibility mode selected!


Circuit: GF180MCU library cell aoi21_4 A1_to_ZN__A2=1,B=0

Doing analysis at TEMP = 86.720724 and TNOM = 27.000000

Using SPARSE 1.3 as Direct Linear Solver

Initial Transient Solution
--------------------------

Node                                   Voltage
----                                   -------
vdd                                    1.80452
a1                                           0
a2                                     1.80452
b                                            0
xu1.net_0_0                        1.54213e-08
zn                                     1.80452
xu1.net_0_1                        1.54213e-08
xu1.net_0_2                        1.54213e-08
xu1.net_0_3                        1.54213e-08
xu1.net_1                              1.80452
vfix_b#branch                                0
vfix_a2#branch                               0
vin#branch                                   0
vdd#branch                        -3.46158e-11

 Reference value :  1.74614e-08
 Reference value :  4.56400e-08
 Reference value :  7.31800e-08
 Reference value :  9.84675e-08
 Reference value :  1.26457e-07
 Reference value :  1.53472e-07
 Reference value :  1.80452e-07
 Reference value :  2.08935e-07
 Reference value :  2.37060e-07
 Reference value :  2.65002e-07
 Reference value :  2.91177e-07
 Reference value :  3.18632e-07
No. of Data Rows : 68030

  Measurements for Transient Analysis

tphl                =  2.77365e-10 targ=  2.45511e-08 trig=  2.42737e-08
tplh                =  5.25169e-10 targ=  9.53464e-08 trig=  9.48212e-08
i_vdd_avg           =  -2.31446e-07 from=  1.00000e-08 to=  3.30002e-07
power_avg_uw        =  4.17651e-01


Total analysis time (seconds) = 3.55773

Total elapsed time (seconds) = 3.650 

Total DRAM available = 16384.000 MB.
DRAM currently available =  118.719 MB.
Maximum ngspice program size =   17.969 MB.
Current ngspice program size =   17.969 MB.

