
Note: No compatibility mode selected!


Circuit: GF180MCU library cell mux2_1 I0_to_Z__I1=0,S=0

Doing analysis at TEMP = 9.748106 and TNOM = 27.000000

Using SPARSE 1.3 as Direct Linear Solver

Initial Transient Solution
--------------------------

Node                                   Voltage
----                                   -------
vdd                                    1.78211
i0                                           0
i1                                           0
s                                            0
xu1.int04                              1.78211
z                                  1.02964e-08
xu1.net_1                            0.0116815
xu1.net_3                              1.24544
xu1.sel1_n                             1.78211
xu1.net_0                              1.78211
xu1.net_2                              1.78211
vfix_s#branch                                0
vfix_i1#branch                               0
vin#branch                                   0
vdd#branch                        -9.90147e-12

 Reference value :  3.59583e-08
 Reference value :  8.77033e-08
 Reference value :  1.40569e-07
 Reference value :  1.89473e-07
 Reference value :  2.38693e-07
 Reference value :  2.92499e-07
No. of Data Rows : 68032

  Measurements for Transient Analysis

tplh                =  3.33581e-09 targ=  2.79087e-08 trig=  2.45729e-08
tphl                =  2.47943e-09 targ=  9.81981e-08 trig=  9.57187e-08
i_vdd_avg           =  -9.65048e-07 from=  1.00000e-08 to=  3.30004e-07
power_avg_uw        =  1.71982e+00


Total analysis time (seconds) = 1.97605

Total elapsed time (seconds) = 2.059 

Total DRAM available = 16384.000 MB.
DRAM currently available =  152.250 MB.
Maximum ngspice program size =   18.141 MB.
Current ngspice program size =   18.141 MB.

