
Note: No compatibility mode selected!


Circuit: GF180MCU library cell nand3_4 A1_to_ZN__A2=1,A3=1

Doing analysis at TEMP = 16.678470 and TNOM = 27.000000

Using SPARSE 1.3 as Direct Linear Solver

Initial Transient Solution
--------------------------

Node                                   Voltage
----                                   -------
vdd                                    1.70919
a1                                           0
a2                                     1.70919
a3                                     1.70919
xu1.net_1_3                        9.18118e-11
xu1.net_0                          1.83624e-10
xu1.net_1_2                        9.18118e-11
xu1.net_1_1                        9.18118e-11
xu1.net_1_0                        9.18119e-11
xu1.net_0_0                        1.83624e-10
zn                                     1.70919
vfix_a3#branch                               0
vfix_a2#branch                               0
vin#branch                                   0
vdd#branch                        -6.93879e-12

 Reference value :  1.79514e-08
 Reference value :  4.80459e-08
 Reference value :  7.55609e-08
 Reference value :  1.03479e-07
 Reference value :  1.31989e-07
 Reference value :  1.61384e-07
 Reference value :  1.90776e-07
 Reference value :  2.24176e-07
 Reference value :  2.61619e-07
 Reference value :  3.05354e-07
No. of Data Rows : 68034

  Measurements for Transient Analysis

tphl                =  1.60605e-09 targ=  2.59602e-08 trig=  2.43542e-08
tplh                =  1.93394e-09 targ=  9.69965e-08 trig=  9.50626e-08
i_vdd_avg           =  -1.57346e-06 from=  1.00000e-08 to=  3.30004e-07
power_avg_uw        =  2.68933e+00


Total analysis time (seconds) = 2.72786

Total elapsed time (seconds) = 2.806 

Total DRAM available = 16384.000 MB.
DRAM currently available =  247.594 MB.
Maximum ngspice program size =   16.938 MB.
Current ngspice program size =   16.938 MB.

