
Note: No compatibility mode selected!


Circuit: GF180MCU library cell nor2_1 A1_to_ZN__A2=0

Doing analysis at TEMP = -27.070870 and TNOM = 27.000000

Using SPARSE 1.3 as Direct Linear Solver

Initial Transient Solution
--------------------------

Node                                   Voltage
----                                   -------
vdd                                    1.81916
a1                                           0
a2                                           0
zn                                     1.81916
xu1.net_0                              1.81916
vfix_a2#branch                               0
vin#branch                                   0
vdd#branch                        -3.65874e-12

 Reference value :  1.03598e-07
 Reference value :  2.31953e-07
No. of Data Rows : 68032

  Measurements for Transient Analysis

tphl                =  2.93761e-09 targ=  3.28877e-08 trig=  2.99501e-08
tplh                =  6.02709e-09 targ=  1.17877e-07 trig=  1.11850e-07
i_vdd_avg           =  -4.96835e-07 from=  1.00000e-08 to=  3.30003e-07
power_avg_uw        =  9.03821e-01


Total analysis time (seconds) = 0.713712

Total elapsed time (seconds) = 0.775 

Total DRAM available = 16384.000 MB.
DRAM currently available =  116.125 MB.
Maximum ngspice program size =   12.969 MB.
Current ngspice program size =   12.594 MB.

