
Note: No compatibility mode selected!


Circuit: GF180MCU library cell nand2_4 A1_to_ZN__A2=1

Doing analysis at TEMP = -21.939010 and TNOM = 27.000000

Using SPARSE 1.3 as Direct Linear Solver

Initial Transient Solution
--------------------------

Node                                   Voltage
----                                   -------
vdd                                    1.85477
a1                                           0
a2                                     1.85477
xu1.net_0_0                        1.54359e-12
zn                                     1.85477
xu1.net_0_1                        1.54361e-12
xu1.net_0_2                        1.54359e-12
xu1.net_0_3                        1.54361e-12
vfix_a2#branch                               0
vin#branch                                   0
vdd#branch                        -7.46041e-12

 Reference value :  3.52809e-08
 Reference value :  8.12809e-08
 Reference value :  1.21804e-07
 Reference value :  1.61554e-07
 Reference value :  2.01711e-07
 Reference value :  2.40926e-07
 Reference value :  2.80949e-07
 Reference value :  3.18964e-07
No. of Data Rows : 68034

  Measurements for Transient Analysis

tphl                =  2.30901e-10 targ=  2.60601e-08 trig=  2.58292e-08
tplh                =  7.23321e-10 targ=  1.00211e-07 trig=  9.94876e-08
i_vdd_avg           =  -1.05571e-07 from=  1.00000e-08 to=  3.30004e-07
power_avg_uw        =  1.95810e-01


Total analysis time (seconds) = 2.35754

Total elapsed time (seconds) = 2.432 

Total DRAM available = 16384.000 MB.
DRAM currently available =  114.984 MB.
Maximum ngspice program size =   18.953 MB.
Current ngspice program size =   18.953 MB.

