
Note: No compatibility mode selected!


Circuit: GF180MCU library cell xor2_1 A1_to_Z__A2=0

Doing analysis at TEMP = 24.742095 and TNOM = 27.000000

Using SPARSE 1.3 as Direct Linear Solver

Initial Transient Solution
--------------------------

Node                                   Voltage
----                                   -------
vdd                                    1.66489
a1                                           0
a2                                           0
xu1.i                                  1.66489
z                                  3.90362e-08
xu1.net_0                          3.53391e-09
xu1.net_2                              1.66489
xu1.net_1                             0.715201
vfix_a2#branch                               0
vin#branch                                   0
vdd#branch                        -9.91412e-12

 Reference value :  4.10302e-08
 Reference value :  1.02083e-07
 Reference value :  1.62203e-07
 Reference value :  2.22720e-07
 Reference value :  2.84558e-07
No. of Data Rows : 68034

  Measurements for Transient Analysis

tplh                =  6.98067e-09 targ=  3.27470e-08 trig=  2.57664e-08
tphl                =  3.18646e-09 targ=  1.02486e-07 trig=  9.92991e-08
i_vdd_avg           =  -8.32328e-07 from=  1.00000e-08 to=  3.30003e-07
power_avg_uw        =  1.38574e+00


Total analysis time (seconds) = 1.58243

Total elapsed time (seconds) = 1.679 

Total DRAM available = 16384.000 MB.
DRAM currently available =  138.516 MB.
Maximum ngspice program size =   19.547 MB.
Current ngspice program size =   19.547 MB.

