
Note: No compatibility mode selected!


Circuit: GF180MCU library cell nand3_1 A1_to_ZN__A2=1,A3=1

Doing analysis at TEMP = 40.648751 and TNOM = 27.000000

Using SPARSE 1.3 as Direct Linear Solver

Initial Transient Solution
--------------------------

Node                                   Voltage
----                                   -------
vdd                                    1.97738
a1                                           0
a2                                     1.97738
a3                                     1.97738
xu1.net_1                          6.45821e-10
xu1.net_0                          1.29164e-09
zn                                     1.97738
vfix_a3#branch                               0
vfix_a2#branch                               0
vin#branch                                   0
vdd#branch                        -2.11047e-12

 Reference value :  6.63350e-08
 Reference value :  1.68318e-07
 Reference value :  2.68635e-07
No. of Data Rows : 68034

  Measurements for Transient Analysis

tphl                =  6.82056e-09 targ=  3.51693e-08 trig=  2.83488e-08
tplh                =  8.20224e-09 targ=  1.15249e-07 trig=  1.07046e-07
i_vdd_avg           =  -2.03653e-06 from=  1.00000e-08 to=  3.30003e-07
power_avg_uw        =  4.02700e+00


Total analysis time (seconds) = 0.935499

Total elapsed time (seconds) = 1.012 

Total DRAM available = 16384.000 MB.
DRAM currently available =   85.234 MB.
Maximum ngspice program size =   17.797 MB.
Current ngspice program size =   17.797 MB.

