
Note: No compatibility mode selected!


Circuit: GF180MCU library cell inv_4 I_to_ZN

Doing analysis at TEMP = -8.367293 and TNOM = 27.000000

Using SPARSE 1.3 as Direct Linear Solver

Initial Transient Solution
--------------------------

Node                                   Voltage
----                                   -------
vdd                                    1.86197
i                                            0
zn                                     1.86197
vin#branch                                   0
vdd#branch                        -7.49384e-12

 Reference value :  4.48996e-08
 Reference value :  1.22117e-07
 Reference value :  1.95790e-07
 Reference value :  2.66122e-07
No. of Data Rows : 68030

  Measurements for Transient Analysis

tphl                =  5.45927e-10 targ=  2.45720e-08 trig=  2.40261e-08
tplh                =  1.26536e-09 targ=  9.53435e-08 trig=  9.40782e-08
i_vdd_avg           =  -1.95383e-06 from=  1.00000e-08 to=  3.30002e-07
power_avg_uw        =  3.63798e+00


Total analysis time (seconds) = 1.33487

Total elapsed time (seconds) = 1.432 

Total DRAM available = 16384.000 MB.
DRAM currently available =  100.391 MB.
Maximum ngspice program size =   18.734 MB.
Current ngspice program size =   18.734 MB.

