
Note: No compatibility mode selected!


Circuit: GF180MCU library cell oai21_4 A1_to_ZN__A2=0,B=1

Doing analysis at TEMP = 3.091634 and TNOM = 27.000000

Using SPARSE 1.3 as Direct Linear Solver

Initial Transient Solution
--------------------------

Node                                   Voltage
----                                   -------
vdd                                    1.72281
a1                                           0
a2                                           0
b                                      1.72281
zn                                     1.72281
xu1.net_0                          5.00395e-11
xu1.net_1_0                            1.72281
xu1.net_1_1                            1.72281
xu1.net_1_2                            1.72281
xu1.net_1_3                            1.72281
vfix_b#branch                                0
vfix_a2#branch                               0
vin#branch                                   0
vdd#branch                        -1.38981e-11

 Reference value :  1.83064e-08
 Reference value :  4.61699e-08
 Reference value :  7.45649e-08
 Reference value :  1.01920e-07
 Reference value :  1.29402e-07
 Reference value :  1.56497e-07
 Reference value :  1.83817e-07
 Reference value :  2.10745e-07
 Reference value :  2.39380e-07
 Reference value :  2.68787e-07
 Reference value :  2.95982e-07
 Reference value :  3.23537e-07
No. of Data Rows : 68030

  Measurements for Transient Analysis

tphl                =  7.02129e-10 targ=  2.81533e-08 trig=  2.74512e-08
tplh                =  2.04184e-09 targ=  1.06395e-07 trig=  1.04354e-07
i_vdd_avg           =  -2.24324e-07 from=  1.00000e-08 to=  3.30002e-07
power_avg_uw        =  3.86468e-01


Total analysis time (seconds) = 3.55446

Total elapsed time (seconds) = 3.629 

Total DRAM available = 16384.000 MB.
DRAM currently available =  240.906 MB.
Maximum ngspice program size =   16.922 MB.
Current ngspice program size =   16.922 MB.

