
Note: No compatibility mode selected!


Circuit: GF180MCU library cell inv_4 I_to_ZN

Doing analysis at TEMP = -24.955878 and TNOM = 27.000000

Using SPARSE 1.3 as Direct Linear Solver

Initial Transient Solution
--------------------------

Node                                   Voltage
----                                   -------
vdd                                    1.62967
i                                            0
zn                                     1.62967
vin#branch                                   0
vdd#branch                        -6.55949e-12

 Reference value :  7.43864e-08
 Reference value :  1.62990e-07
 Reference value :  2.45246e-07
 Reference value :  3.23290e-07
No. of Data Rows : 68032

  Measurements for Transient Analysis

tphl                =  8.04255e-10 targ=  2.81037e-08 trig=  2.72995e-08
tplh                =  1.91220e-09 targ=  1.05811e-07 trig=  1.03898e-07
i_vdd_avg           =  -2.10710e-07 from=  1.00000e-08 to=  3.30000e-07
power_avg_uw        =  3.43388e-01


Total analysis time (seconds) = 1.11179

Total elapsed time (seconds) = 1.169 

Total DRAM available = 16384.000 MB.
DRAM currently available =  101.031 MB.
Maximum ngspice program size =   17.453 MB.
Current ngspice program size =   17.453 MB.

