
Note: No compatibility mode selected!


Circuit: GF180MCU library cell xor2_4 A1_to_Z__A2=0

Doing analysis at TEMP = 114.775490 and TNOM = 27.000000

Using SPARSE 1.3 as Direct Linear Solver

Initial Transient Solution
--------------------------

Node                                   Voltage
----                                   -------
vdd                                    1.95585
a1                                           0
a2                                           0
xu1.net_2                             0.051725
xu1.i                                  1.95585
xu1.net_0                          1.40893e-07
xu1.z_neg                              1.95585
z                                  1.49231e-08
xu1.net_1                              1.95585
vfix_a2#branch                               0
vin#branch                                   0
vdd#branch                        -4.50956e-11

 Reference value :  2.39464e-08
 Reference value :  5.88091e-08
 Reference value :  9.45541e-08
 Reference value :  1.29391e-07
 Reference value :  1.66131e-07
 Reference value :  2.04689e-07
 Reference value :  2.41949e-07
 Reference value :  2.78181e-07
 Reference value :  3.14741e-07
No. of Data Rows : 68030

  Measurements for Transient Analysis

tplh                =  1.91166e-09 targ=  2.84100e-08 trig=  2.64983e-08
tphl                =  2.87281e-09 targ=  1.04368e-07 trig=  1.01495e-07
i_vdd_avg           =  -1.27451e-06 from=  1.00000e-08 to=  3.30001e-07
power_avg_uw        =  2.49276e+00


Total analysis time (seconds) = 2.60128

Total elapsed time (seconds) = 2.686 

Total DRAM available = 16384.000 MB.
DRAM currently available =  152.250 MB.
Maximum ngspice program size =   17.250 MB.
Current ngspice program size =   17.250 MB.

