
Note: No compatibility mode selected!


Circuit: GF180MCU library cell inv_4 I_to_ZN

Doing analysis at TEMP = 93.936177 and TNOM = 27.000000

Using SPARSE 1.3 as Direct Linear Solver

Initial Transient Solution
--------------------------

Node                                   Voltage
----                                   -------
vdd                                    1.78432
i                                            0
zn                                     1.78432
vin#branch                                   0
vdd#branch                        -2.09884e-11

 Reference value :  5.07813e-08
 Reference value :  1.29190e-07
 Reference value :  2.02946e-07
 Reference value :  2.81855e-07
No. of Data Rows : 68032

  Measurements for Transient Analysis

tphl                =  1.64120e-09 targ=  3.01131e-08 trig=  2.84719e-08
tplh                =  3.36981e-09 targ=  1.10785e-07 trig=  1.07416e-07
i_vdd_avg           =  -1.31848e-06 from=  1.00000e-08 to=  3.30000e-07
power_avg_uw        =  2.35259e+00


Total analysis time (seconds) = 1.218

Total elapsed time (seconds) = 1.295 

Total DRAM available = 16384.000 MB.
DRAM currently available =   85.234 MB.
Maximum ngspice program size =   16.500 MB.
Current ngspice program size =   16.500 MB.

