
Note: No compatibility mode selected!


Circuit: GF180MCU library cell inv_4 I_to_ZN

Doing analysis at TEMP = 50.261758 and TNOM = 27.000000

Using SPARSE 1.3 as Direct Linear Solver

Initial Transient Solution
--------------------------

Node                                   Voltage
----                                   -------
vdd                                    1.96217
i                                            0
zn                                     1.96217
vin#branch                                   0
vdd#branch                        -8.87359e-12

 Reference value :  5.25480e-08
 Reference value :  1.28039e-07
 Reference value :  2.00918e-07
 Reference value :  2.78619e-07
No. of Data Rows : 68032

  Measurements for Transient Analysis

tphl                =  6.02759e-10 targ=  2.65880e-08 trig=  2.59853e-08
tplh                =  1.33341e-09 targ=  1.01289e-07 trig=  9.99558e-08
i_vdd_avg           =  -6.45321e-07 from=  1.00000e-08 to=  3.30004e-07
power_avg_uw        =  1.26623e+00


Total analysis time (seconds) = 1.26787

Total elapsed time (seconds) = 1.352 

Total DRAM available = 16384.000 MB.
DRAM currently available =  138.516 MB.
Maximum ngspice program size =   17.984 MB.
Current ngspice program size =   17.984 MB.

