
Note: No compatibility mode selected!


Circuit: GF180MCU library cell inv_1 I_to_ZN

Doing analysis at TEMP = 66.595519 and TNOM = 27.000000

Using SPARSE 1.3 as Direct Linear Solver

Initial Transient Solution
--------------------------

Node                                   Voltage
----                                   -------
vdd                                    1.82077
i                                            0
zn                                     1.82077
vin#branch                                   0
vdd#branch                        -2.52516e-12

 Reference value :  1.43258e-07
No. of Data Rows : 68032

  Measurements for Transient Analysis

tphl                =  3.54265e-09 targ=  3.13752e-08 trig=  2.78326e-08
tplh                =  6.23150e-09 targ=  1.11729e-07 trig=  1.05498e-07
i_vdd_avg           =  -1.36121e-06 from=  1.00000e-08 to=  3.30003e-07
power_avg_uw        =  2.47845e+00


Total analysis time (seconds) = 0.440977

Total elapsed time (seconds) = 0.539 

Total DRAM available = 16384.000 MB.
DRAM currently available =  170.703 MB.
Maximum ngspice program size =   18.125 MB.
Current ngspice program size =   18.125 MB.

