
Note: No compatibility mode selected!


Circuit: GF180MCU library cell oai21_4 A1_to_ZN__A2=0,B=1

Doing analysis at TEMP = 64.254866 and TNOM = 27.000000

Using SPARSE 1.3 as Direct Linear Solver

Initial Transient Solution
--------------------------

Node                                   Voltage
----                                   -------
vdd                                    1.87621
a1                                           0
a2                                           0
b                                      1.87621
zn                                     1.87621
xu1.net_0                          7.30222e-09
xu1.net_1_0                            1.87621
xu1.net_1_1                            1.87621
xu1.net_1_2                            1.87621
xu1.net_1_3                            1.87621
vfix_b#branch                                0
vfix_a2#branch                               0
vin#branch                                   0
vdd#branch                         -1.9985e-11

 Reference value :  1.78164e-08
 Reference value :  4.57524e-08
 Reference value :  7.45824e-08
 Reference value :  1.03317e-07
 Reference value :  1.30712e-07
 Reference value :  1.58322e-07
 Reference value :  1.86977e-07
 Reference value :  2.15062e-07
 Reference value :  2.44027e-07
 Reference value :  2.72437e-07
 Reference value :  3.00107e-07
 Reference value :  3.28257e-07
No. of Data Rows : 68032

  Measurements for Transient Analysis

tphl                =  1.54048e-09 targ=  2.63554e-08 trig=  2.48149e-08
tplh                =  3.97666e-09 targ=  1.00422e-07 trig=  9.64448e-08
i_vdd_avg           =  -2.24854e-06 from=  1.00000e-08 to=  3.30002e-07
power_avg_uw        =  4.21873e+00


Total analysis time (seconds) = 3.38508

Total elapsed time (seconds) = 3.464 

Total DRAM available = 16384.000 MB.
DRAM currently available =   75.156 MB.
Maximum ngspice program size =   15.359 MB.
Current ngspice program size =   15.359 MB.

