
Note: No compatibility mode selected!


Circuit: GF180MCU library cell inv_1 I_to_ZN

Doing analysis at TEMP = 52.048575 and TNOM = 27.000000

Using SPARSE 1.3 as Direct Linear Solver

Initial Transient Solution
--------------------------

Node                                   Voltage
----                                   -------
vdd                                    1.79973
i                                            0
zn                                     1.79973
vin#branch                                   0
vdd#branch                        -7.90726e-12

 Reference value :  1.53156e-07
No. of Data Rows : 68030

  Measurements for Transient Analysis

tphl                =  2.71907e-09 targ=  2.92273e-08 trig=  2.65083e-08
tplh                =  5.06064e-09 targ=  1.06585e-07 trig=  1.01525e-07
i_vdd_avg           =  -1.90067e-06 from=  1.00000e-08 to=  3.30001e-07
power_avg_uw        =  3.42070e+00


Total analysis time (seconds) = 0.428608

Total elapsed time (seconds) = 0.504 

Total DRAM available = 16384.000 MB.
DRAM currently available =   87.750 MB.
Maximum ngspice program size =   15.656 MB.
Current ngspice program size =   15.656 MB.

