
Note: No compatibility mode selected!


Circuit: GF180MCU library cell xor2_4 A1_to_Z__A2=0

Doing analysis at TEMP = 23.590730 and TNOM = 27.000000

Using SPARSE 1.3 as Direct Linear Solver

Initial Transient Solution
--------------------------

Node                                   Voltage
----                                   -------
vdd                                    1.78364
a1                                           0
a2                                           0
xu1.net_2                            0.0428119
xu1.i                                  1.78364
xu1.net_0                          7.64792e-09
xu1.z_neg                              1.78364
z                                  8.13334e-09
xu1.net_1                              1.78364
vfix_a2#branch                               0
vin#branch                                   0
vdd#branch                        -1.53609e-11

 Reference value :  2.53025e-08
 Reference value :  6.44483e-08
 Reference value :  1.01093e-07
 Reference value :  1.36934e-07
 Reference value :  1.72959e-07
 Reference value :  2.09993e-07
 Reference value :  2.49018e-07
 Reference value :  2.87754e-07
 Reference value :  3.23364e-07
No. of Data Rows : 68032

  Measurements for Transient Analysis

tplh                =  1.01972e-09 targ=  3.06851e-08 trig=  2.96654e-08
tphl                =  3.06400e-09 targ=  1.14060e-07 trig=  1.10996e-07
i_vdd_avg           =  -5.97462e-07 from=  1.00000e-08 to=  3.30004e-07
power_avg_uw        =  1.06566e+00


Total analysis time (seconds) = 2.67518

Total elapsed time (seconds) = 2.770 

Total DRAM available = 16384.000 MB.
DRAM currently available =  103.406 MB.
Maximum ngspice program size =   15.766 MB.
Current ngspice program size =   15.766 MB.

