
Note: No compatibility mode selected!


Circuit: GF180MCU library cell aoi21_1 A1_to_ZN__A2=1,B=0

Doing analysis at TEMP = 13.908524 and TNOM = 27.000000

Using SPARSE 1.3 as Direct Linear Solver

Initial Transient Solution
--------------------------

Node                                   Voltage
----                                   -------
vdd                                    1.71364
a1                                           0
a2                                     1.71364
b                                            0
xu1.net_0                          1.79975e-09
zn                                     1.71364
xu1.net_1                              1.71364
vfix_b#branch                                0
vfix_a2#branch                               0
vin#branch                                   0
vdd#branch                        -4.35396e-12

 Reference value :  6.43221e-08
 Reference value :  1.60362e-07
 Reference value :  2.58532e-07
No. of Data Rows : 68032

  Measurements for Transient Analysis

tphl                =  1.13226e-09 targ=  2.78345e-08 trig=  2.67023e-08
tplh                =  2.52635e-09 targ=  1.04633e-07 trig=  1.02107e-07
i_vdd_avg           =  -2.74848e-07 from=  1.00000e-08 to=  3.30002e-07
power_avg_uw        =  4.70990e-01


Total analysis time (seconds) = 1.08526

Total elapsed time (seconds) = 1.180 

Total DRAM available = 16384.000 MB.
DRAM currently available =   94.797 MB.
Maximum ngspice program size =   18.031 MB.
Current ngspice program size =   18.031 MB.

