
Note: No compatibility mode selected!


Circuit: GF180MCU library cell mux2_4 I0_to_Z__I1=0,S=0

Doing analysis at TEMP = -19.269909 and TNOM = 27.000000

Using SPARSE 1.3 as Direct Linear Solver

Initial Transient Solution
--------------------------

Node                                   Voltage
----                                   -------
vdd                                    1.68451
i0                                           0
i1                                           0
s                                            0
xu1.int04                              1.68451
z                                    7.234e-09
xu1.net_1                            0.0055775
xu1.net_3                              1.15035
xu1.sel1_n                             1.68451
xu1.net_0                              1.68451
xu1.net_2                              1.68451
vfix_s#branch                                0
vfix_i1#branch                               0
vin#branch                                   0
vdd#branch                        -1.46158e-11

 Reference value :  2.96375e-08
 Reference value :  7.17847e-08
 Reference value :  1.11325e-07
 Reference value :  1.50672e-07
 Reference value :  1.89128e-07
 Reference value :  2.28635e-07
 Reference value :  2.64425e-07
 Reference value :  3.02802e-07
No. of Data Rows : 68030

  Measurements for Transient Analysis

tplh                =  2.29513e-09 targ=  3.09462e-08 trig=  2.86511e-08
tphl                =  3.36194e-09 targ=  1.11315e-07 trig=  1.07953e-07
i_vdd_avg           =  -2.25010e-06 from=  1.00000e-08 to=  3.30002e-07
power_avg_uw        =  3.79032e+00


Total analysis time (seconds) = 2.38818

Total elapsed time (seconds) = 2.459 

Total DRAM available = 16384.000 MB.
DRAM currently available =  148.562 MB.
Maximum ngspice program size =   17.859 MB.
Current ngspice program size =   17.859 MB.

