
Note: No compatibility mode selected!


Circuit: GF180MCU library cell oai21_4 A1_to_ZN__A2=0,B=1

Doing analysis at TEMP = 56.979182 and TNOM = 27.000000

Using SPARSE 1.3 as Direct Linear Solver

Initial Transient Solution
--------------------------

Node                                   Voltage
----                                   -------
vdd                                     1.8966
a1                                           0
a2                                           0
b                                       1.8966
zn                                      1.8966
xu1.net_0                          7.51756e-08
xu1.net_1_0                             1.8966
xu1.net_1_1                             1.8966
xu1.net_1_2                             1.8966
xu1.net_1_3                             1.8966
vfix_b#branch                                0
vfix_a2#branch                               0
vin#branch                                   0
vdd#branch                        -8.40143e-11

 Reference value :  1.92164e-08
 Reference value :  4.84871e-08
 Reference value :  7.67621e-08
 Reference value :  1.04722e-07
 Reference value :  1.31657e-07
 Reference value :  1.60627e-07
 Reference value :  1.88787e-07
 Reference value :  2.16172e-07
 Reference value :  2.44212e-07
 Reference value :  2.71482e-07
 Reference value :  2.98337e-07
 Reference value :  3.27352e-07
No. of Data Rows : 68032

  Measurements for Transient Analysis

tphl                =  3.29085e-10 targ=  2.46714e-08 trig=  2.43423e-08
tplh                =  7.16971e-10 targ=  9.57439e-08 trig=  9.50269e-08
i_vdd_avg           =  -5.70880e-07 from=  1.00000e-08 to=  3.30002e-07
power_avg_uw        =  1.08273e+00


Total analysis time (seconds) = 3.6094

Total elapsed time (seconds) = 3.693 

Total DRAM available = 16384.000 MB.
DRAM currently available =   83.547 MB.
Maximum ngspice program size =   17.094 MB.
Current ngspice program size =   17.094 MB.

