
Note: No compatibility mode selected!


Circuit: GF180MCU library cell nor2_4 A1_to_ZN__A2=0

Doing analysis at TEMP = 115.263040 and TNOM = 27.000000

Using SPARSE 1.3 as Direct Linear Solver

Initial Transient Solution
--------------------------

Node                                   Voltage
----                                   -------
vdd                                    1.77627
a1                                           0
a2                                           0
zn                                     1.77626
xu1.net_0_0                            1.77626
xu1.net_0_1                            1.77626
xu1.net_0_2                            1.77626
xu1.net_0_3                            1.77626
vfix_a2#branch                               0
vin#branch                                   0
vdd#branch                        -1.19199e-09

 Reference value :  2.91675e-08
 Reference value :  6.87094e-08
 Reference value :  1.08421e-07
 Reference value :  1.47831e-07
 Reference value :  1.89233e-07
 Reference value :  2.29029e-07
 Reference value :  2.70056e-07
 Reference value :  3.09711e-07
No. of Data Rows : 68030

  Measurements for Transient Analysis

tphl                =  1.74804e-10 targ=  2.77632e-08 trig=  2.75884e-08
tplh                =  1.62978e-09 targ=  1.06395e-07 trig=  1.04765e-07
i_vdd_avg           =  -5.92132e-07 from=  1.00000e-08 to=  3.30001e-07
power_avg_uw        =  1.05178e+00


Total analysis time (seconds) = 2.37776

Total elapsed time (seconds) = 2.461 

Total DRAM available = 16384.000 MB.
DRAM currently available =  128.203 MB.
Maximum ngspice program size =   18.234 MB.
Current ngspice program size =   18.234 MB.

