
Note: No compatibility mode selected!


Circuit: GF180MCU library cell nand2_4 A1_to_ZN__A2=1

Doing analysis at TEMP = 27.533388 and TNOM = 27.000000

Using SPARSE 1.3 as Direct Linear Solver

Initial Transient Solution
--------------------------

Node                                   Voltage
----                                   -------
vdd                                    1.81273
a1                                           0
a2                                     1.81273
xu1.net_0_0                         5.1286e-09
zn                                     1.81273
xu1.net_0_1                         5.1286e-09
xu1.net_0_2                         5.1286e-09
xu1.net_0_3                         5.1286e-09
vfix_a2#branch                               0
vin#branch                                   0
vdd#branch                        -1.21213e-11

 Reference value :  2.98045e-08
 Reference value :  7.18645e-08
 Reference value :  1.11677e-07
 Reference value :  1.54782e-07
 Reference value :  1.94160e-07
 Reference value :  2.37855e-07
 Reference value :  2.80982e-07
 Reference value :  3.21312e-07
No. of Data Rows : 68030

  Measurements for Transient Analysis

tphl                =  6.82619e-10 targ=  2.61061e-08 trig=  2.54235e-08
tplh                =  1.13711e-09 targ=  9.94076e-08 trig=  9.82705e-08
i_vdd_avg           =  -8.40726e-07 from=  1.00000e-08 to=  3.30002e-07
power_avg_uw        =  1.52401e+00


Total analysis time (seconds) = 2.27466

Total elapsed time (seconds) = 2.368 

Total DRAM available = 16384.000 MB.
DRAM currently available =  141.375 MB.
Maximum ngspice program size =   18.547 MB.
Current ngspice program size =   18.547 MB.

