
Note: No compatibility mode selected!


Circuit: GF180MCU library cell aoi21_1 A1_to_ZN__A2=1,B=0

Doing analysis at TEMP = -18.835851 and TNOM = 27.000000

Using SPARSE 1.3 as Direct Linear Solver

Initial Transient Solution
--------------------------

Node                                   Voltage
----                                   -------
vdd                                    1.84314
a1                                           0
a2                                     1.84314
b                                            0
xu1.net_0                          8.70162e-11
zn                                     1.84314
xu1.net_1                              1.84314
vfix_b#branch                                0
vfix_a2#branch                               0
vin#branch                                   0
vdd#branch                        -3.76114e-12

 Reference value :  9.05975e-08
 Reference value :  1.97633e-07
 Reference value :  3.00403e-07
No. of Data Rows : 68032

  Measurements for Transient Analysis

tphl                =  3.20395e-09 targ=  2.78589e-08 trig=  2.46550e-08
tplh                =  7.98615e-09 targ=  1.03951e-07 trig=  9.59650e-08
i_vdd_avg           =  -2.28151e-06 from=  1.00000e-08 to=  3.30003e-07
power_avg_uw        =  4.20515e+00


Total analysis time (seconds) = 0.8644

Total elapsed time (seconds) = 0.915 

Total DRAM available = 16384.000 MB.
DRAM currently available =  151.500 MB.
Maximum ngspice program size =   15.812 MB.
Current ngspice program size =   15.812 MB.

