
Note: No compatibility mode selected!


Circuit: GF180MCU library cell nand2_1 A1_to_ZN__A2=1

Doing analysis at TEMP = 120.962510 and TNOM = 27.000000

Using SPARSE 1.3 as Direct Linear Solver

Initial Transient Solution
--------------------------

Node                                   Voltage
----                                   -------
vdd                                    1.72248
a1                                           0
a2                                     1.72248
xu1.net_0                          1.07498e-06
zn                                     1.72248
vfix_a2#branch                               0
vin#branch                                   0
vdd#branch                        -1.92009e-10

 Reference value :  8.50863e-08
 Reference value :  2.13861e-07
No. of Data Rows : 68032

  Measurements for Transient Analysis

tphl                =  3.77385e-09 targ=  3.13658e-08 trig=  2.75919e-08
tplh                =  5.13722e-09 targ=  1.09913e-07 trig=  1.04776e-07
i_vdd_avg           =  -1.33223e-06 from=  1.00000e-08 to=  3.30000e-07
power_avg_uw        =  2.29475e+00


Total analysis time (seconds) = 0.717307

Total elapsed time (seconds) = 0.801 

Total DRAM available = 16384.000 MB.
DRAM currently available =  103.406 MB.
Maximum ngspice program size =   18.344 MB.
Current ngspice program size =   18.344 MB.

