
Note: No compatibility mode selected!


Circuit: GF180MCU library cell nor2_1 A1_to_ZN__A2=0

Doing analysis at TEMP = 76.981534 and TNOM = 27.000000

Using SPARSE 1.3 as Direct Linear Solver

Initial Transient Solution
--------------------------

Node                                   Voltage
----                                   -------
vdd                                    1.80087
a1                                           0
a2                                           0
zn                                     1.80087
xu1.net_0                              1.80087
vfix_a2#branch                               0
vin#branch                                   0
vdd#branch                        -5.34759e-11

 Reference value :  9.09472e-08
 Reference value :  2.24562e-07
No. of Data Rows : 68032

  Measurements for Transient Analysis

tphl                =  1.24072e-09 targ=  2.92805e-08 trig=  2.80398e-08
tplh                =  3.32680e-09 targ=  1.09446e-07 trig=  1.06119e-07
i_vdd_avg           =  -3.98252e-07 from=  1.00000e-08 to=  3.30002e-07
power_avg_uw        =  7.17200e-01


Total analysis time (seconds) = 0.706958

Total elapsed time (seconds) = 0.799 

Total DRAM available = 16384.000 MB.
DRAM currently available =  150.312 MB.
Maximum ngspice program size =   17.219 MB.
Current ngspice program size =   17.219 MB.

