
Note: No compatibility mode selected!


Circuit: GF180MCU library cell mux2_4 I0_to_Z__I1=0,S=0

Doing analysis at TEMP = 108.089460 and TNOM = 27.000000

Using SPARSE 1.3 as Direct Linear Solver

Initial Transient Solution
--------------------------

Node                                   Voltage
----                                   -------
vdd                                    1.85246
i0                                           0
i1                                           0
s                                            0
xu1.int04                              1.85245
z                                  2.24547e-08
xu1.net_1                            0.0526295
xu1.net_3                              1.38433
xu1.sel1_n                             1.85245
xu1.net_0                              1.85246
xu1.net_2                              1.85245
vfix_s#branch                                0
vfix_i1#branch                               0
vin#branch                                   0
vdd#branch                        -2.57488e-10

 Reference value :  2.20864e-08
 Reference value :  5.77849e-08
 Reference value :  9.37899e-08
 Reference value :  1.30667e-07
 Reference value :  1.65957e-07
 Reference value :  2.01730e-07
 Reference value :  2.36815e-07
 Reference value :  2.74370e-07
 Reference value :  3.11492e-07
No. of Data Rows : 68030

  Measurements for Transient Analysis

tplh                =  1.67898e-09 targ=  3.14977e-08 trig=  2.98187e-08
tphl                =  3.30031e-09 targ=  1.14756e-07 trig=  1.11456e-07
i_vdd_avg           =  -2.12394e-06 from=  1.00000e-08 to=  3.30002e-07
power_avg_uw        =  3.93451e+00


Total analysis time (seconds) = 2.91934

Total elapsed time (seconds) = 3.019 

Total DRAM available = 16384.000 MB.
DRAM currently available =   87.750 MB.
Maximum ngspice program size =   18.750 MB.
Current ngspice program size =   18.750 MB.

