
Note: No compatibility mode selected!


Circuit: GF180MCU library cell aoi21_4 A1_to_ZN__A2=1,B=0

Doing analysis at TEMP = 71.496140 and TNOM = 27.000000

Using SPARSE 1.3 as Direct Linear Solver

Initial Transient Solution
--------------------------

Node                                   Voltage
----                                   -------
vdd                                    1.67634
a1                                           0
a2                                     1.67634
b                                            0
xu1.net_0_0                        9.18322e-08
zn                                     1.67634
xu1.net_0_1                        9.18322e-08
xu1.net_0_2                        9.18322e-08
xu1.net_0_3                        9.18322e-08
xu1.net_1                              1.67634
vfix_b#branch                                0
vfix_a2#branch                               0
vin#branch                                   0
vdd#branch                        -1.60783e-10

 Reference value :  1.94614e-08
 Reference value :  4.62323e-08
 Reference value :  7.53173e-08
 Reference value :  1.03522e-07
 Reference value :  1.31477e-07
 Reference value :  1.60922e-07
 Reference value :  1.89323e-07
 Reference value :  2.17377e-07
 Reference value :  2.46347e-07
 Reference value :  2.73822e-07
 Reference value :  3.00947e-07
 Reference value :  3.29357e-07
No. of Data Rows : 68032

  Measurements for Transient Analysis

tphl                =  4.81811e-10 targ=  2.80392e-08 trig=  2.75574e-08
tplh                =  1.92236e-09 targ=  1.06595e-07 trig=  1.04672e-07
i_vdd_avg           =  -5.25777e-07 from=  1.00000e-08 to=  3.30002e-07
power_avg_uw        =  8.81381e-01


Total analysis time (seconds) = 3.43771

Total elapsed time (seconds) = 3.534 

Total DRAM available = 16384.000 MB.
DRAM currently available =  106.047 MB.
Maximum ngspice program size =   17.953 MB.
Current ngspice program size =   17.953 MB.

