
Note: No compatibility mode selected!


Circuit: GF180MCU library cell oai21_1 A1_to_ZN__A2=0,B=1

Doing analysis at TEMP = -21.570906 and TNOM = 27.000000

Using SPARSE 1.3 as Direct Linear Solver

Initial Transient Solution
--------------------------

Node                                   Voltage
----                                   -------
vdd                                    1.67962
a1                                           0
a2                                           0
b                                      1.67962
zn                                     1.67962
xu1.net_0                          1.34139e-10
xu1.net_1                              1.67962
vfix_b#branch                                0
vfix_a2#branch                               0
vin#branch                                   0
vdd#branch                        -3.41255e-12

 Reference value :  7.01050e-08
 Reference value :  1.74838e-07
 Reference value :  2.75053e-07
No. of Data Rows : 68034

  Measurements for Transient Analysis

tphl                =  8.08377e-10 targ=  2.68496e-08 trig=  2.60413e-08
tplh                =  1.81272e-09 targ=  1.01937e-07 trig=  1.00124e-07
i_vdd_avg           =  -1.72793e-07 from=  1.00000e-08 to=  3.30003e-07
power_avg_uw        =  2.90227e-01


Total analysis time (seconds) = 0.909287

Total elapsed time (seconds) = 0.992 

Total DRAM available = 16384.000 MB.
DRAM currently available =  148.562 MB.
Maximum ngspice program size =   18.016 MB.
Current ngspice program size =   18.016 MB.

