
Note: No compatibility mode selected!


Circuit: GF180MCU library cell aoi21_4 A1_to_ZN__A2=1,B=0

Doing analysis at TEMP = 67.339877 and TNOM = 27.000000

Using SPARSE 1.3 as Direct Linear Solver

Initial Transient Solution
--------------------------

Node                                   Voltage
----                                   -------
vdd                                     1.8876
a1                                           0
a2                                      1.8876
b                                            0
xu1.net_0_0                        7.01751e-08
zn                                      1.8876
xu1.net_0_1                        7.01751e-08
xu1.net_0_2                        7.01751e-08
xu1.net_0_3                        7.01751e-08
xu1.net_1                               1.8876
vfix_b#branch                                0
vfix_a2#branch                               0
vin#branch                                   0
vdd#branch                        -1.45249e-10

 Reference value :  1.93814e-08
 Reference value :  4.82144e-08
 Reference value :  7.60044e-08
 Reference value :  1.05696e-07
 Reference value :  1.33961e-07
 Reference value :  1.62006e-07
 Reference value :  1.90569e-07
 Reference value :  2.18874e-07
 Reference value :  2.46649e-07
 Reference value :  2.73691e-07
 Reference value :  3.03341e-07
 Reference value :  3.32076e-07
No. of Data Rows : 68030

  Measurements for Transient Analysis

tphl                =  1.40563e-09 targ=  2.82541e-08 trig=  2.68484e-08
tplh                =  3.05335e-09 targ=  1.05599e-07 trig=  1.02545e-07
i_vdd_avg           =  -2.00459e-06 from=  1.00000e-08 to=  3.30001e-07
power_avg_uw        =  3.78387e+00


Total analysis time (seconds) = 3.38819

Total elapsed time (seconds) = 3.477 

Total DRAM available = 16384.000 MB.
DRAM currently available =  134.375 MB.
Maximum ngspice program size =   19.000 MB.
Current ngspice program size =   19.000 MB.

