
Note: No compatibility mode selected!


Circuit: GF180MCU library cell xor2_4 A1_to_Z__A2=0

Doing analysis at TEMP = 11.916637 and TNOM = 27.000000

Using SPARSE 1.3 as Direct Linear Solver

Initial Transient Solution
--------------------------

Node                                   Voltage
----                                   -------
vdd                                    1.69389
a1                                           0
a2                                           0
xu1.net_2                            0.0372408
xu1.i                                  1.69389
xu1.net_0                          3.06695e-09
xu1.z_neg                              1.69389
z                                  7.92285e-09
xu1.net_1                              1.69389
vfix_a2#branch                               0
vin#branch                                   0
vdd#branch                        -1.33021e-11

 Reference value :  2.48575e-08
 Reference value :  6.33224e-08
 Reference value :  1.00172e-07
 Reference value :  1.42342e-07
 Reference value :  1.87308e-07
 Reference value :  2.35672e-07
 Reference value :  2.91577e-07
No. of Data Rows : 68032

  Measurements for Transient Analysis

tplh                =  1.41583e-09 targ=  2.94583e-08 trig=  2.80424e-08
tphl                =  2.92652e-09 targ=  1.09054e-07 trig=  1.06127e-07
i_vdd_avg           =  -8.03057e-07 from=  1.00000e-08 to=  3.30002e-07
power_avg_uw        =  1.36029e+00


Total analysis time (seconds) = 1.91105

Total elapsed time (seconds) = 1.994 

Total DRAM available = 16384.000 MB.
DRAM currently available =  116.234 MB.
Maximum ngspice program size =   17.984 MB.
Current ngspice program size =   17.984 MB.

