
Note: No compatibility mode selected!


Circuit: GF180MCU library cell nand3_4 A1_to_ZN__A2=1,A3=1

Doing analysis at TEMP = 33.676163 and TNOM = 27.000000

Using SPARSE 1.3 as Direct Linear Solver

Initial Transient Solution
--------------------------

Node                                   Voltage
----                                   -------
vdd                                    1.87066
a1                                           0
a2                                     1.87066
a3                                     1.87066
xu1.net_1_3                        7.97586e-09
xu1.net_0                          1.59517e-08
xu1.net_1_2                        7.97586e-09
xu1.net_1_1                        7.97586e-09
xu1.net_1_0                        7.97586e-09
xu1.net_0_0                        1.59517e-08
zn                                     1.87066
vfix_a3#branch                               0
vfix_a2#branch                               0
vin#branch                                   0
vdd#branch                         -1.5172e-11

 Reference value :  1.92514e-08
 Reference value :  4.88067e-08
 Reference value :  7.82567e-08
 Reference value :  1.06352e-07
 Reference value :  1.35116e-07
 Reference value :  1.64236e-07
 Reference value :  1.93503e-07
 Reference value :  2.21407e-07
 Reference value :  2.49802e-07
 Reference value :  2.77366e-07
 Reference value :  3.06391e-07
 Reference value :  3.35341e-07
No. of Data Rows : 68032

  Measurements for Transient Analysis

tphl                =  2.13153e-09 targ=  3.17086e-08 trig=  2.95771e-08
tplh                =  3.65216e-09 targ=  1.14383e-07 trig=  1.10731e-07
i_vdd_avg           =  -2.24430e-06 from=  1.00000e-08 to=  3.30001e-07
power_avg_uw        =  4.19833e+00


Total analysis time (seconds) = 3.32686

Total elapsed time (seconds) = 3.421 

Total DRAM available = 16384.000 MB.
DRAM currently available =  140.547 MB.
Maximum ngspice program size =   17.875 MB.
Current ngspice program size =   17.875 MB.

