
Note: No compatibility mode selected!


Circuit: GF180MCU library cell inv_1 I_to_ZN

Doing analysis at TEMP = 23.170873 and TNOM = 27.000000

Using SPARSE 1.3 as Direct Linear Solver

Initial Transient Solution
--------------------------

Node                                   Voltage
----                                   -------
vdd                                    1.88417
i                                            0
zn                                     1.88417
vin#branch                                   0
vdd#branch                        -2.80398e-12

 Reference value :  1.47110e-07
No. of Data Rows : 68032

  Measurements for Transient Analysis

tphl                =  2.47609e-09 targ=  2.81430e-08 trig=  2.56669e-08
tplh                =  4.83107e-09 targ=  1.03832e-07 trig=  9.90007e-08
i_vdd_avg           =  -2.34207e-06 from=  1.00000e-08 to=  3.30000e-07
power_avg_uw        =  4.41287e+00


Total analysis time (seconds) = 0.459569

Total elapsed time (seconds) = 0.535 

Total DRAM available = 16384.000 MB.
DRAM currently available =  134.375 MB.
Maximum ngspice program size =   17.719 MB.
Current ngspice program size =   17.719 MB.

