
Note: No compatibility mode selected!


Circuit: GF180MCU library cell aoi21_1 A1_to_ZN__A2=1,B=0

Doing analysis at TEMP = 71.660945 and TNOM = 27.000000

Using SPARSE 1.3 as Direct Linear Solver

Initial Transient Solution
--------------------------

Node                                   Voltage
----                                   -------
vdd                                    1.65984
a1                                           0
a2                                     1.65984
b                                            0
xu1.net_0                          9.29785e-08
zn                                     1.65984
xu1.net_1                              1.65984
vfix_b#branch                                0
vfix_a2#branch                               0
vin#branch                                   0
vdd#branch                        -4.01816e-11

 Reference value :  6.46730e-08
 Reference value :  1.65293e-07
 Reference value :  2.64908e-07
No. of Data Rows : 68032

  Measurements for Transient Analysis

tphl                =  4.57730e-09 targ=  3.23825e-08 trig=  2.78052e-08
tplh                =  1.01918e-08 targ=  1.15608e-07 trig=  1.05416e-07
i_vdd_avg           =  -1.61396e-06 from=  1.00000e-08 to=  3.30003e-07
power_avg_uw        =  2.67891e+00


Total analysis time (seconds) = 1.07581

Total elapsed time (seconds) = 1.182 

Total DRAM available = 16384.000 MB.
DRAM currently available =   87.750 MB.
Maximum ngspice program size =   17.844 MB.
Current ngspice program size =   17.844 MB.

