
Note: No compatibility mode selected!


Circuit: GF180MCU library cell oai21_1 A1_to_ZN__A2=0,B=1

Doing analysis at TEMP = 100.860000 and TNOM = 27.000000

Using SPARSE 1.3 as Direct Linear Solver

Initial Transient Solution
--------------------------

Node                                   Voltage
----                                   -------
vdd                                    1.71222
a1                                           0
a2                                           0
b                                      1.71222
zn                                     1.71221
xu1.net_0                          8.53901e-07
xu1.net_1                              1.71222
vfix_b#branch                                0
vfix_a2#branch                               0
vin#branch                                   0
vdd#branch                        -1.60456e-10

 Reference value :  6.86253e-08
 Reference value :  1.67468e-07
 Reference value :  2.61543e-07
No. of Data Rows : 68034

  Measurements for Transient Analysis

tphl                =  2.85263e-09 targ=  2.69165e-08 trig=  2.40639e-08
tplh                =  7.33518e-09 targ=  1.01527e-07 trig=  9.41917e-08
i_vdd_avg           =  -1.47869e-06 from=  1.00000e-08 to=  3.30003e-07
power_avg_uw        =  2.53184e+00


Total analysis time (seconds) = 1.08359

Total elapsed time (seconds) = 1.180 

Total DRAM available = 16384.000 MB.
DRAM currently available =   83.547 MB.
Maximum ngspice program size =   17.375 MB.
Current ngspice program size =   17.375 MB.

