
Note: No compatibility mode selected!


Circuit: GF180MCU library cell nand3_4 A1_to_ZN__A2=1,A3=1

Doing analysis at TEMP = -37.485203 and TNOM = 27.000000

Using SPARSE 1.3 as Direct Linear Solver

Initial Transient Solution
--------------------------

Node                                   Voltage
----                                   -------
vdd                                    1.93513
a1                                           0
a2                                     1.93513
a3                                     1.93513
xu1.net_1_3                        1.07429e-11
xu1.net_0                          2.14857e-11
xu1.net_1_2                        1.07429e-11
xu1.net_1_1                        1.07429e-11
xu1.net_1_0                        1.07428e-11
xu1.net_0_0                        2.14857e-11
zn                                     1.93513
vfix_a3#branch                               0
vfix_a2#branch                               0
vin#branch                                   0
vdd#branch                        -7.79379e-12

 Reference value :  2.09664e-08
 Reference value :  4.94512e-08
 Reference value :  7.76562e-08
 Reference value :  1.06746e-07
 Reference value :  1.35255e-07
 Reference value :  1.63915e-07
 Reference value :  1.91556e-07
 Reference value :  2.19306e-07
 Reference value :  2.46671e-07
 Reference value :  2.75435e-07
 Reference value :  3.05905e-07
 Reference value :  3.34415e-07
No. of Data Rows : 68034

  Measurements for Transient Analysis

tphl                =  1.46838e-09 targ=  2.86727e-08 trig=  2.72043e-08
tplh                =  2.35859e-09 targ=  1.05972e-07 trig=  1.03613e-07
i_vdd_avg           =  -1.81413e-06 from=  1.00000e-08 to=  3.30005e-07
power_avg_uw        =  3.51059e+00


Total analysis time (seconds) = 3.54319

Total elapsed time (seconds) = 3.623 

Total DRAM available = 16384.000 MB.
DRAM currently available =   95.000 MB.
Maximum ngspice program size =   18.172 MB.
Current ngspice program size =   18.172 MB.

