
Note: No compatibility mode selected!


Circuit: GF180MCU library cell nand3_4 A1_to_ZN__A2=1,A3=1

Doing analysis at TEMP = 104.183700 and TNOM = 27.000000

Using SPARSE 1.3 as Direct Linear Solver

Initial Transient Solution
--------------------------

Node                                   Voltage
----                                   -------
vdd                                    1.73666
a1                                           0
a2                                     1.73666
a3                                     1.73666
xu1.net_1_3                        4.99017e-07
xu1.net_0                          9.98034e-07
xu1.net_1_2                        4.99017e-07
xu1.net_1_1                        4.99017e-07
xu1.net_1_0                        4.99017e-07
xu1.net_0_0                        9.98034e-07
zn                                     1.73666
vfix_a3#branch                               0
vfix_a2#branch                               0
vin#branch                                   0
vdd#branch                        -3.76958e-10

 Reference value :  2.24914e-08
 Reference value :  5.39513e-08
 Reference value :  8.37013e-08
 Reference value :  1.12960e-07
 Reference value :  1.44860e-07
 Reference value :  1.74805e-07
 Reference value :  2.04986e-07
 Reference value :  2.35326e-07
 Reference value :  2.63451e-07
 Reference value :  2.91960e-07
 Reference value :  3.21250e-07
No. of Data Rows : 68032

  Measurements for Transient Analysis

tphl                =  5.45012e-10 targ=  2.70944e-08 trig=  2.65494e-08
tplh                =  1.20142e-09 targ=  1.02850e-07 trig=  1.01648e-07
i_vdd_avg           =  -4.96671e-07 from=  1.00000e-08 to=  3.30000e-07
power_avg_uw        =  8.62548e-01


Total analysis time (seconds) = 3.1259

Total elapsed time (seconds) = 3.200 

Total DRAM available = 16384.000 MB.
DRAM currently available =  139.781 MB.
Maximum ngspice program size =   18.672 MB.
Current ngspice program size =   18.672 MB.

