
Note: No compatibility mode selected!


Circuit: GF180MCU library cell inv_4 I_to_ZN

Doing analysis at TEMP = -16.466926 and TNOM = 27.000000

Using SPARSE 1.3 as Direct Linear Solver

Initial Transient Solution
--------------------------

Node                                   Voltage
----                                   -------
vdd                                    1.70772
i                                            0
zn                                     1.70772
vin#branch                                   0
vdd#branch                        -6.98389e-12

 Reference value :  6.20031e-08
 Reference value :  1.46524e-07
 Reference value :  2.26493e-07
 Reference value :  3.05534e-07
No. of Data Rows : 68032

  Measurements for Transient Analysis

tphl                =  5.89163e-10 targ=  2.99445e-08 trig=  2.93553e-08
tplh                =  2.43115e-09 targ=  1.12497e-07 trig=  1.10066e-07
i_vdd_avg           =  -7.89984e-07 from=  1.00000e-08 to=  3.30004e-07
power_avg_uw        =  1.34907e+00


Total analysis time (seconds) = 1.14164

Total elapsed time (seconds) = 1.211 

Total DRAM available = 16384.000 MB.
DRAM currently available =  151.500 MB.
Maximum ngspice program size =   17.391 MB.
Current ngspice program size =   17.391 MB.

