
Note: No compatibility mode selected!


Circuit: GF180MCU library cell mux2_4 I0_to_Z__I1=0,S=0

Doing analysis at TEMP = 73.369053 and TNOM = 27.000000

Using SPARSE 1.3 as Direct Linear Solver

Initial Transient Solution
--------------------------

Node                                   Voltage
----                                   -------
vdd                                    1.79856
i0                                           0
i1                                           0
s                                            0
xu1.int04                              1.79856
z                                  1.04675e-08
xu1.net_1                            0.0488151
xu1.net_3                              1.34099
xu1.sel1_n                             1.79856
xu1.net_0                              1.79856
xu1.net_2                              1.79856
vfix_s#branch                                0
vfix_i1#branch                               0
vin#branch                                   0
vdd#branch                        -5.78348e-11

 Reference value :  2.37664e-08
 Reference value :  6.49989e-08
 Reference value :  1.01560e-07
 Reference value :  1.38935e-07
 Reference value :  1.75350e-07
 Reference value :  2.12954e-07
 Reference value :  2.49234e-07
 Reference value :  2.85540e-07
 Reference value :  3.23635e-07
No. of Data Rows : 68030

  Measurements for Transient Analysis

tplh                =  1.33230e-09 targ=  2.58480e-08 trig=  2.45157e-08
tphl                =  1.60704e-09 targ=  9.71542e-08 trig=  9.55471e-08
i_vdd_avg           =  -1.53986e-06 from=  1.00000e-08 to=  3.30000e-07
power_avg_uw        =  2.76953e+00


Total analysis time (seconds) = 2.56285

Total elapsed time (seconds) = 2.648 

Total DRAM available = 16384.000 MB.
DRAM currently available =  106.047 MB.
Maximum ngspice program size =   18.000 MB.
Current ngspice program size =   18.000 MB.

