
Note: No compatibility mode selected!


Circuit: GF180MCU library cell nor2_1 A1_to_ZN__A2=0

Doing analysis at TEMP = 24.143996 and TNOM = 27.000000

Using SPARSE 1.3 as Direct Linear Solver

Initial Transient Solution
--------------------------

Node                                   Voltage
----                                   -------
vdd                                     1.6345
a1                                           0
a2                                           0
zn                                      1.6345
xu1.net_0                               1.6345
vfix_a2#branch                               0
vin#branch                                   0
vdd#branch                        -5.09347e-12

 Reference value :  9.94527e-08
 Reference value :  2.41593e-07
No. of Data Rows : 68032

  Measurements for Transient Analysis

tphl                =  1.29803e-09 targ=  2.54156e-08 trig=  2.41175e-08
tplh                =  4.54455e-09 targ=  9.88972e-08 trig=  9.43526e-08
i_vdd_avg           =  -8.65366e-07 from=  1.00000e-08 to=  3.30003e-07
power_avg_uw        =  1.41444e+00


Total analysis time (seconds) = 0.65525

Total elapsed time (seconds) = 0.732 

Total DRAM available = 16384.000 MB.
DRAM currently available =  151.500 MB.
Maximum ngspice program size =   16.891 MB.
Current ngspice program size =   16.891 MB.

