
Note: No compatibility mode selected!


Circuit: GF180MCU library cell inv_4 I_to_ZN

Doing analysis at TEMP = 117.287380 and TNOM = 27.000000

Using SPARSE 1.3 as Direct Linear Solver

Initial Transient Solution
--------------------------

Node                                   Voltage
----                                   -------
vdd                                    1.75389
i                                            0
zn                                     1.75389
vin#branch                                   0
vdd#branch                        -6.69355e-10

 Reference value :  5.31266e-08
 Reference value :  1.33596e-07
 Reference value :  2.13852e-07
 Reference value :  2.88861e-07
No. of Data Rows : 68032

  Measurements for Transient Analysis

tphl                =  6.91520e-10 targ=  2.91310e-08 trig=  2.84395e-08
tplh                =  2.32319e-09 targ=  1.09642e-07 trig=  1.07319e-07
i_vdd_avg           =  -1.33615e-06 from=  1.00000e-08 to=  3.30001e-07
power_avg_uw        =  2.34346e+00


Total analysis time (seconds) = 1.17293

Total elapsed time (seconds) = 1.247 

Total DRAM available = 16384.000 MB.
DRAM currently available =  103.406 MB.
Maximum ngspice program size =   15.688 MB.
Current ngspice program size =   15.688 MB.

