
Note: No compatibility mode selected!


Circuit: GF180MCU library cell xor2_1 A1_to_Z__A2=0

Doing analysis at TEMP = 116.938730 and TNOM = 27.000000

Using SPARSE 1.3 as Direct Linear Solver

Initial Transient Solution
--------------------------

Node                                   Voltage
----                                   -------
vdd                                    1.75186
a1                                           0
a2                                           0
xu1.i                                  1.75182
z                                  5.85976e-08
xu1.net_0                          2.92712e-08
xu1.net_2                              1.75184
xu1.net_1                             0.495862
vfix_a2#branch                               0
vin#branch                                   0
vdd#branch                         -7.0205e-10

 Reference value :  4.08866e-08
 Reference value :  1.05572e-07
 Reference value :  1.68661e-07
 Reference value :  2.34487e-07
 Reference value :  2.98356e-07
No. of Data Rows : 68032

  Measurements for Transient Analysis

tplh                =  9.56981e-09 targ=  3.87694e-08 trig=  2.91996e-08
tphl                =  4.67510e-09 targ=  1.14274e-07 trig=  1.09599e-07
i_vdd_avg           =  -2.19563e-06 from=  1.00000e-08 to=  3.30001e-07
power_avg_uw        =  3.84644e+00


Total analysis time (seconds) = 1.45494

Total elapsed time (seconds) = 1.533 

Total DRAM available = 16384.000 MB.
DRAM currently available =  148.562 MB.
Maximum ngspice program size =   16.344 MB.
Current ngspice program size =   16.344 MB.

