
Note: No compatibility mode selected!


Circuit: GF180MCU library cell nand3_1 A1_to_ZN__A2=1,A3=1

Doing analysis at TEMP = 38.152247 and TNOM = 27.000000

Using SPARSE 1.3 as Direct Linear Solver

Initial Transient Solution
--------------------------

Node                                   Voltage
----                                   -------
vdd                                    1.77527
a1                                           0
a2                                     1.77527
a3                                     1.77527
xu1.net_1                          1.10749e-08
xu1.net_0                          2.21498e-08
zn                                     1.77527
vfix_a3#branch                               0
vfix_a2#branch                               0
vin#branch                                   0
vdd#branch                        -4.25978e-12

 Reference value :  6.87099e-08
 Reference value :  1.69022e-07
 Reference value :  2.63380e-07
No. of Data Rows : 68030

  Measurements for Transient Analysis

tphl                =  2.63764e-09 targ=  3.18988e-08 trig=  2.92612e-08
tplh                =  4.07269e-09 targ=  1.13856e-07 trig=  1.09784e-07
i_vdd_avg           =  -5.98843e-07 from=  1.00000e-08 to=  3.30002e-07
power_avg_uw        =  1.06311e+00


Total analysis time (seconds) = 0.944195

Total elapsed time (seconds) = 1.038 

Total DRAM available = 16384.000 MB.
DRAM currently available =  141.375 MB.
Maximum ngspice program size =   18.344 MB.
Current ngspice program size =   18.344 MB.

