
Note: No compatibility mode selected!


Circuit: GF180MCU library cell nor2_1 A1_to_ZN__A2=0

Doing analysis at TEMP = 9.186146 and TNOM = 27.000000

Using SPARSE 1.3 as Direct Linear Solver

Initial Transient Solution
--------------------------

Node                                   Voltage
----                                   -------
vdd                                    1.69868
a1                                           0
a2                                           0
zn                                     1.69868
xu1.net_0                              1.69868
vfix_a2#branch                               0
vin#branch                                   0
vdd#branch                        -4.01577e-12

 Reference value :  8.18911e-08
 Reference value :  2.07486e-07
 Reference value :  3.35805e-07
No. of Data Rows : 68034

  Measurements for Transient Analysis

tphl                =  3.53530e-09 targ=  2.94646e-08 trig=  2.59293e-08
tplh                =  1.03615e-08 targ=  1.10149e-07 trig=  9.97880e-08
i_vdd_avg           =  -2.09039e-06 from=  1.00000e-08 to=  3.30005e-07
power_avg_uw        =  3.55090e+00


Total analysis time (seconds) = 0.773526

Total elapsed time (seconds) = 0.857 

Total DRAM available = 16384.000 MB.
DRAM currently available =  141.375 MB.
Maximum ngspice program size =   17.406 MB.
Current ngspice program size =   17.406 MB.

