
Note: No compatibility mode selected!


Circuit: GF180MCU library cell xor2_1 A1_to_Z__A2=0

Doing analysis at TEMP = -8.649502 and TNOM = 27.000000

Using SPARSE 1.3 as Direct Linear Solver

Initial Transient Solution
--------------------------

Node                                   Voltage
----                                   -------
vdd                                     1.6248
a1                                           0
a2                                           0
xu1.i                                   1.6248
z                                  2.69414e-08
xu1.net_0                          3.44868e-09
xu1.net_2                               1.6248
xu1.net_1                             0.663851
vfix_a2#branch                               0
vin#branch                                   0
vdd#branch                        -9.92504e-12

 Reference value :  4.08657e-08
 Reference value :  1.00736e-07
 Reference value :  1.61364e-07
 Reference value :  2.22906e-07
 Reference value :  2.87534e-07
No. of Data Rows : 68034

  Measurements for Transient Analysis

tplh                =  8.07681e-09 targ=  3.64109e-08 trig=  2.83341e-08
tphl                =  3.86230e-09 targ=  1.10865e-07 trig=  1.07002e-07
i_vdd_avg           =  -1.61217e-06 from=  1.00000e-08 to=  3.30004e-07
power_avg_uw        =  2.61944e+00


Total analysis time (seconds) = 1.71771

Total elapsed time (seconds) = 1.807 

Total DRAM available = 16384.000 MB.
DRAM currently available =   87.750 MB.
Maximum ngspice program size =   18.172 MB.
Current ngspice program size =   18.172 MB.

