
Note: No compatibility mode selected!


Circuit: GF180MCU library cell xor2_1 A1_to_Z__A2=0

Doing analysis at TEMP = 78.066187 and TNOM = 27.000000

Using SPARSE 1.3 as Direct Linear Solver

Initial Transient Solution
--------------------------

Node                                   Voltage
----                                   -------
vdd                                    1.97342
a1                                           0
a2                                           0
xu1.i                                  1.97341
z                                  3.74332e-08
xu1.net_0                          1.86034e-08
xu1.net_2                              1.97341
xu1.net_1                             0.598263
vfix_a2#branch                               0
vin#branch                                   0
vdd#branch                        -1.55992e-10

 Reference value :  4.08642e-08
 Reference value :  1.01864e-07
 Reference value :  1.61826e-07
 Reference value :  2.24054e-07
 Reference value :  2.83776e-07
No. of Data Rows : 68030

  Measurements for Transient Analysis

tplh                =  4.41919e-10 targ=  2.81602e-08 trig=  2.77183e-08
tphl                =  1.86307e-09 targ=  1.07018e-07 trig=  1.05155e-07
i_vdd_avg           =  -2.98692e-07 from=  1.00000e-08 to=  3.30001e-07
power_avg_uw        =  5.89445e-01


Total analysis time (seconds) = 1.59235

Total elapsed time (seconds) = 1.674 

Total DRAM available = 16384.000 MB.
DRAM currently available =  106.047 MB.
Maximum ngspice program size =   16.984 MB.
Current ngspice program size =   16.984 MB.

