
Note: No compatibility mode selected!


Circuit: GF180MCU library cell mux2_1 I0_to_Z__I1=0,S=0

Doing analysis at TEMP = 58.164722 and TNOM = 27.000000

Using SPARSE 1.3 as Direct Linear Solver

Initial Transient Solution
--------------------------

Node                                   Voltage
----                                   -------
vdd                                     1.7579
i0                                           0
i1                                           0
s                                            0
xu1.int04                               1.7579
z                                  9.29737e-09
xu1.net_1                            0.0488414
xu1.net_3                              1.33302
xu1.sel1_n                              1.7579
xu1.net_0                               1.7579
xu1.net_2                               1.7579
vfix_s#branch                                0
vfix_i1#branch                               0
vin#branch                                   0
vdd#branch                        -5.68838e-11

 Reference value :  3.70071e-08
 Reference value :  9.12321e-08
 Reference value :  1.44027e-07
 Reference value :  1.98842e-07
 Reference value :  2.52382e-07
 Reference value :  3.07032e-07
No. of Data Rows : 68032

  Measurements for Transient Analysis

tplh                =  4.16906e-09 targ=  3.21539e-08 trig=  2.79848e-08
tphl                =  3.80926e-09 targ=  1.09764e-07 trig=  1.05954e-07
i_vdd_avg           =  -1.86084e-06 from=  1.00000e-08 to=  3.30002e-07
power_avg_uw        =  3.27117e+00


Total analysis time (seconds) = 1.74242

Total elapsed time (seconds) = 1.815 

Total DRAM available = 16384.000 MB.
DRAM currently available =  113.828 MB.
Maximum ngspice program size =   18.031 MB.
Current ngspice program size =   18.031 MB.

