
Note: No compatibility mode selected!


Circuit: GF180MCU library cell xor2_4 A1_to_Z__A2=0

Doing analysis at TEMP = 112.599780 and TNOM = 27.000000

Using SPARSE 1.3 as Direct Linear Solver

Initial Transient Solution
--------------------------

Node                                   Voltage
----                                   -------
vdd                                    1.95322
a1                                           0
a2                                           0
xu1.net_2                            0.0562984
xu1.i                                  1.95322
xu1.net_0                          1.44261e-06
xu1.z_neg                              1.95321
z                                  2.61045e-08
xu1.net_1                              1.95321
vfix_a2#branch                               0
vin#branch                                   0
vdd#branch                        -3.86458e-10

 Reference value :  2.42025e-08
 Reference value :  6.20335e-08
 Reference value :  1.00069e-07
 Reference value :  1.36360e-07
 Reference value :  1.74105e-07
 Reference value :  2.09739e-07
 Reference value :  2.45834e-07
 Reference value :  2.80870e-07
 Reference value :  3.18685e-07
No. of Data Rows : 68032

  Measurements for Transient Analysis

tplh                =  1.61270e-09 targ=  2.88607e-08 trig=  2.72480e-08
tphl                =  2.74806e-09 targ=  1.06492e-07 trig=  1.03744e-07
i_vdd_avg           =  -2.25194e-06 from=  1.00000e-08 to=  3.30005e-07
power_avg_uw        =  4.39854e+00


Total analysis time (seconds) = 2.79409

Total elapsed time (seconds) = 2.884 

Total DRAM available = 16384.000 MB.
DRAM currently available =   95.000 MB.
Maximum ngspice program size =   16.938 MB.
Current ngspice program size =   16.938 MB.

