
Note: No compatibility mode selected!


Circuit: GF180MCU library cell oai21_4 A1_to_ZN__A2=0,B=1

Doing analysis at TEMP = 102.163610 and TNOM = 27.000000

Using SPARSE 1.3 as Direct Linear Solver

Initial Transient Solution
--------------------------

Node                                   Voltage
----                                   -------
vdd                                    1.92616
a1                                           0
a2                                           0
b                                      1.92616
zn                                     1.92616
xu1.net_0                          8.86397e-07
xu1.net_1_0                            1.92616
xu1.net_1_1                            1.92616
xu1.net_1_2                            1.92616
xu1.net_1_3                            1.92616
vfix_b#branch                                0
vfix_a2#branch                               0
vin#branch                                   0
vdd#branch                        -7.52028e-10

 Reference value :  1.92114e-08
 Reference value :  4.86511e-08
 Reference value :  7.64211e-08
 Reference value :  1.07265e-07
 Reference value :  1.40805e-07
 Reference value :  1.79760e-07
 Reference value :  2.18791e-07
 Reference value :  2.63231e-07
 Reference value :  3.11435e-07
No. of Data Rows : 68034

  Measurements for Transient Analysis

tphl                =  1.03287e-09 targ=  2.73547e-08 trig=  2.63218e-08
tplh                =  2.47001e-09 targ=  1.03435e-07 trig=  1.00965e-07
i_vdd_avg           =  -1.54203e-06 from=  1.00000e-08 to=  3.30005e-07
power_avg_uw        =  2.97021e+00


Total analysis time (seconds) = 2.35472

Total elapsed time (seconds) = 2.436 

Total DRAM available = 16384.000 MB.
DRAM currently available =  116.234 MB.
Maximum ngspice program size =   15.141 MB.
Current ngspice program size =   15.141 MB.

