
Note: No compatibility mode selected!


Circuit: GF180MCU library cell mux2_4 I0_to_Z__I1=0,S=0

Doing analysis at TEMP = -11.565041 and TNOM = 27.000000

Using SPARSE 1.3 as Direct Linear Solver

Initial Transient Solution
--------------------------

Node                                   Voltage
----                                   -------
vdd                                    1.96879
i0                                           0
i1                                           0
s                                            0
xu1.int04                              1.96879
z                                  7.24416e-09
xu1.net_1                            0.0107502
xu1.net_3                              1.39634
xu1.sel1_n                             1.96879
xu1.net_0                              1.96879
xu1.net_2                              1.96879
vfix_s#branch                                0
vfix_i1#branch                               0
vin#branch                                   0
vdd#branch                         -1.7257e-11

 Reference value :  2.45825e-08
 Reference value :  6.04491e-08
 Reference value :  9.71391e-08
 Reference value :  1.34761e-07
 Reference value :  1.70056e-07
 Reference value :  2.07214e-07
 Reference value :  2.45829e-07
 Reference value :  2.84591e-07
 Reference value :  3.19816e-07
No. of Data Rows : 68030

  Measurements for Transient Analysis

tplh                =  8.29262e-10 targ=  2.81176e-08 trig=  2.72883e-08
tphl                =  1.83713e-09 targ=  1.05702e-07 trig=  1.03865e-07
i_vdd_avg           =  -6.73982e-07 from=  1.00000e-08 to=  3.30001e-07
power_avg_uw        =  1.32693e+00


Total analysis time (seconds) = 2.57262

Total elapsed time (seconds) = 2.658 

Total DRAM available = 16384.000 MB.
DRAM currently available =   92.000 MB.
Maximum ngspice program size =   16.422 MB.
Current ngspice program size =   16.422 MB.

