
Note: No compatibility mode selected!


Circuit: GF180MCU library cell nor2_1 A1_to_ZN__A2=0

Doing analysis at TEMP = 63.883631 and TNOM = 27.000000

Using SPARSE 1.3 as Direct Linear Solver

Initial Transient Solution
--------------------------

Node                                   Voltage
----                                   -------
vdd                                    1.96615
a1                                           0
a2                                           0
zn                                     1.96615
xu1.net_0                              1.96615
vfix_a2#branch                               0
vin#branch                                   0
vdd#branch                        -3.05115e-11

 Reference value :  9.81705e-08
 Reference value :  2.29375e-07
No. of Data Rows : 68034

  Measurements for Transient Analysis

tphl                =  1.75176e-09 targ=  2.92032e-08 trig=  2.74515e-08
tplh                =  3.96840e-09 targ=  1.08323e-07 trig=  1.04354e-07
i_vdd_avg           =  -7.83392e-07 from=  1.00000e-08 to=  3.30003e-07
power_avg_uw        =  1.54027e+00


Total analysis time (seconds) = 0.706733

Total elapsed time (seconds) = 0.790 

Total DRAM available = 16384.000 MB.
DRAM currently available =  113.828 MB.
Maximum ngspice program size =   16.688 MB.
Current ngspice program size =   16.688 MB.

