
Note: No compatibility mode selected!


Circuit: GF180MCU library cell oai21_4 A1_to_ZN__A2=0,B=1

Doing analysis at TEMP = 22.626149 and TNOM = 27.000000

Using SPARSE 1.3 as Direct Linear Solver

Initial Transient Solution
--------------------------

Node                                   Voltage
----                                   -------
vdd                                     1.8359
a1                                           0
a2                                           0
b                                       1.8359
zn                                      1.8359
xu1.net_0                          7.05263e-09
xu1.net_1_0                             1.8359
xu1.net_1_1                             1.8359
xu1.net_1_2                             1.8359
xu1.net_1_3                             1.8359
vfix_b#branch                                0
vfix_a2#branch                               0
vin#branch                                   0
vdd#branch                        -2.15978e-11

 Reference value :  2.01864e-08
 Reference value :  4.75451e-08
 Reference value :  7.48451e-08
 Reference value :  1.03880e-07
 Reference value :  1.31228e-07
 Reference value :  1.58838e-07
 Reference value :  1.87518e-07
 Reference value :  2.15585e-07
 Reference value :  2.44420e-07
 Reference value :  2.73148e-07
 Reference value :  3.01063e-07
 Reference value :  3.28948e-07
No. of Data Rows : 68034

  Measurements for Transient Analysis

tphl                =  9.98490e-10 targ=  2.83923e-08 trig=  2.73938e-08
tplh                =  2.74451e-09 targ=  1.06926e-07 trig=  1.04181e-07
i_vdd_avg           =  -1.23237e-06 from=  1.00000e-08 to=  3.30003e-07
power_avg_uw        =  2.26251e+00


Total analysis time (seconds) = 3.34331

Total elapsed time (seconds) = 3.432 

Total DRAM available = 16384.000 MB.
DRAM currently available =  141.375 MB.
Maximum ngspice program size =   16.031 MB.
Current ngspice program size =   16.031 MB.

