
Note: No compatibility mode selected!


Circuit: GF180MCU library cell nor2_4 A1_to_ZN__A2=0

Doing analysis at TEMP = 22.222549 and TNOM = 27.000000

Using SPARSE 1.3 as Direct Linear Solver

Initial Transient Solution
--------------------------

Node                                   Voltage
----                                   -------
vdd                                    1.85284
a1                                           0
a2                                           0
zn                                     1.85284
xu1.net_0_0                            1.85284
xu1.net_0_1                            1.85284
xu1.net_0_2                            1.85284
xu1.net_0_3                            1.85284
vfix_a2#branch                               0
vin#branch                                   0
vdd#branch                        -2.19135e-11

 Reference value :  2.76419e-08
 Reference value :  6.71319e-08
 Reference value :  1.06931e-07
 Reference value :  1.51286e-07
 Reference value :  1.93322e-07
 Reference value :  2.39702e-07
 Reference value :  2.93051e-07
No. of Data Rows : 68032

  Measurements for Transient Analysis

tphl                =  5.22364e-10 targ=  2.47495e-08 trig=  2.42272e-08
tplh                =  1.49277e-09 targ=  9.61743e-08 trig=  9.46816e-08
i_vdd_avg           =  -1.54974e-06 from=  1.00000e-08 to=  3.30001e-07
power_avg_uw        =  2.87141e+00


Total analysis time (seconds) = 1.98315

Total elapsed time (seconds) = 2.065 

Total DRAM available = 16384.000 MB.
DRAM currently available =  229.062 MB.
Maximum ngspice program size =   16.875 MB.
Current ngspice program size =   16.875 MB.

