
Note: No compatibility mode selected!


Circuit: GF180MCU library cell oai21_4 A1_to_ZN__A2=0,B=1

Doing analysis at TEMP = 90.546580 and TNOM = 27.000000

Using SPARSE 1.3 as Direct Linear Solver

Initial Transient Solution
--------------------------

Node                                   Voltage
----                                   -------
vdd                                    1.68281
a1                                           0
a2                                           0
b                                      1.68281
zn                                     1.68281
xu1.net_0                          5.13284e-07
xu1.net_1_0                            1.68281
xu1.net_1_1                            1.68281
xu1.net_1_2                            1.68281
xu1.net_1_3                            1.68281
vfix_b#branch                                0
vfix_a2#branch                               0
vin#branch                                   0
vdd#branch                        -3.92692e-10

 Reference value :  1.87314e-08
 Reference value :  4.72316e-08
 Reference value :  7.57766e-08
 Reference value :  1.05992e-07
 Reference value :  1.33471e-07
 Reference value :  1.62476e-07
 Reference value :  1.90528e-07
 Reference value :  2.17567e-07
 Reference value :  2.44947e-07
 Reference value :  2.73326e-07
 Reference value :  3.00886e-07
 Reference value :  3.29286e-07
No. of Data Rows : 68032

  Measurements for Transient Analysis

tphl                =  1.76514e-09 targ=  2.98897e-08 trig=  2.81245e-08
tplh                =  4.22242e-09 targ=  1.10596e-07 trig=  1.06374e-07
i_vdd_avg           =  -1.69891e-06 from=  1.00000e-08 to=  3.30001e-07
power_avg_uw        =  2.85896e+00


Total analysis time (seconds) = 3.58848

Total elapsed time (seconds) = 3.698 

Total DRAM available = 16384.000 MB.
DRAM currently available =  113.828 MB.
Maximum ngspice program size =   18.078 MB.
Current ngspice program size =   18.078 MB.

