
Note: No compatibility mode selected!


Circuit: GF180MCU library cell oai21_1 A1_to_ZN__A2=0,B=1

Doing analysis at TEMP = 18.798574 and TNOM = 27.000000

Using SPARSE 1.3 as Direct Linear Solver

Initial Transient Solution
--------------------------

Node                                   Voltage
----                                   -------
vdd                                    1.77877
a1                                           0
a2                                           0
b                                      1.77877
zn                                     1.77877
xu1.net_0                          5.27421e-09
xu1.net_1                              1.77877
vfix_b#branch                                0
vfix_a2#branch                               0
vin#branch                                   0
vdd#branch                        -4.82288e-12

 Reference value :  6.70421e-08
 Reference value :  1.58132e-07
 Reference value :  2.50357e-07
No. of Data Rows : 68032

  Measurements for Transient Analysis

tphl                =  3.26277e-09 targ=  3.21551e-08 trig=  2.88923e-08
tplh                =  6.60814e-09 targ=  1.15285e-07 trig=  1.08677e-07
i_vdd_avg           =  -1.08052e-06 from=  1.00000e-08 to=  3.30002e-07
power_avg_uw        =  1.92200e+00


Total analysis time (seconds) = 0.99127

Total elapsed time (seconds) = 1.096 

Total DRAM available = 16384.000 MB.
DRAM currently available =  157.312 MB.
Maximum ngspice program size =   17.109 MB.
Current ngspice program size =   17.109 MB.

