
Note: No compatibility mode selected!


Circuit: GF180MCU library cell oai21_1 A1_to_ZN__A2=0,B=1

Doing analysis at TEMP = 6.957409 and TNOM = 27.000000

Using SPARSE 1.3 as Direct Linear Solver

Initial Transient Solution
--------------------------

Node                                   Voltage
----                                   -------
vdd                                    1.88495
a1                                           0
a2                                           0
b                                      1.88495
zn                                     1.88495
xu1.net_0                          1.96512e-09
xu1.net_1                              1.88495
vfix_b#branch                                0
vfix_a2#branch                               0
vin#branch                                   0
vdd#branch                        -4.30247e-12

 Reference value :  6.56469e-08
 Reference value :  1.63586e-07
 Reference value :  2.61651e-07
No. of Data Rows : 68032

  Measurements for Transient Analysis

tphl                =  2.93853e-09 targ=  2.80257e-08 trig=  2.50872e-08
tplh                =  7.02024e-09 targ=  1.04282e-07 trig=  9.72616e-08
i_vdd_avg           =  -1.96374e-06 from=  1.00000e-08 to=  3.30001e-07
power_avg_uw        =  3.70155e+00


Total analysis time (seconds) = 0.961932

Total elapsed time (seconds) = 1.047 

Total DRAM available = 16384.000 MB.
DRAM currently available =  141.375 MB.
Maximum ngspice program size =   18.172 MB.
Current ngspice program size =   18.172 MB.

