
Note: No compatibility mode selected!


Circuit: GF180MCU library cell xor2_4 A1_to_Z__A2=0

Doing analysis at TEMP = 95.931751 and TNOM = 27.000000

Using SPARSE 1.3 as Direct Linear Solver

Initial Transient Solution
--------------------------

Node                                   Voltage
----                                   -------
vdd                                    1.85042
a1                                           0
a2                                           0
xu1.net_2                            0.0535351
xu1.i                                  1.85042
xu1.net_0                          6.58147e-07
xu1.z_neg                              1.85041
z                                   1.5525e-08
xu1.net_1                              1.85042
vfix_a2#branch                               0
vin#branch                                   0
vdd#branch                        -1.81366e-10

 Reference value :  2.64225e-08
 Reference value :  6.38350e-08
 Reference value :  1.00420e-07
 Reference value :  1.37787e-07
 Reference value :  1.74727e-07
 Reference value :  2.10255e-07
 Reference value :  2.46785e-07
 Reference value :  2.81337e-07
 Reference value :  3.18297e-07
No. of Data Rows : 68030

  Measurements for Transient Analysis

tplh                =  1.26601e-09 targ=  2.70822e-08 trig=  2.58162e-08
tphl                =  2.00516e-09 targ=  1.01454e-07 trig=  9.94487e-08
i_vdd_avg           =  -1.16756e-06 from=  1.00000e-08 to=  3.30002e-07
power_avg_uw        =  2.16048e+00


Total analysis time (seconds) = 2.52766

Total elapsed time (seconds) = 2.614 

Total DRAM available = 16384.000 MB.
DRAM currently available =  105.328 MB.
Maximum ngspice program size =   15.172 MB.
Current ngspice program size =   15.172 MB.

