
Note: No compatibility mode selected!


Circuit: GF180MCU library cell aoi21_1 A1_to_ZN__A2=1,B=0

Doing analysis at TEMP = 22.527895 and TNOM = 27.000000

Using SPARSE 1.3 as Direct Linear Solver

Initial Transient Solution
--------------------------

Node                                   Voltage
----                                   -------
vdd                                    1.92628
a1                                           0
a2                                     1.92628
b                                            0
xu1.net_0                          3.46483e-09
zn                                     1.92628
xu1.net_1                              1.92628
vfix_b#branch                                0
vfix_a2#branch                               0
vin#branch                                   0
vdd#branch                        -5.79954e-12

 Reference value :  6.66726e-08
 Reference value :  1.63978e-07
 Reference value :  2.62788e-07
No. of Data Rows : 68032

  Measurements for Transient Analysis

tphl                =  2.70475e-09 targ=  3.14248e-08 trig=  2.87201e-08
tplh                =  5.59475e-09 targ=  1.13755e-07 trig=  1.08160e-07
i_vdd_avg           =  -1.09011e-06 from=  1.00000e-08 to=  3.30003e-07
power_avg_uw        =  2.09987e+00


Total analysis time (seconds) = 0.962469

Total elapsed time (seconds) = 1.039 

Total DRAM available = 16384.000 MB.
DRAM currently available =  106.047 MB.
Maximum ngspice program size =   16.625 MB.
Current ngspice program size =   16.625 MB.

