
Note: No compatibility mode selected!


Circuit: GF180MCU library cell nor2_1 A1_to_ZN__A2=0

Doing analysis at TEMP = -18.499143 and TNOM = 27.000000

Using SPARSE 1.3 as Direct Linear Solver

Initial Transient Solution
--------------------------

Node                                   Voltage
----                                   -------
vdd                                    1.87283
a1                                           0
a2                                           0
zn                                     1.87283
xu1.net_0                              1.87283
vfix_a2#branch                               0
vin#branch                                   0
vdd#branch                        -3.82158e-12

 Reference value :  9.27182e-08
 Reference value :  2.26658e-07
No. of Data Rows : 68032

  Measurements for Transient Analysis

tphl                =  2.70566e-09 targ=  2.88510e-08 trig=  2.61453e-08
tplh                =  6.81493e-09 targ=  1.07251e-07 trig=  1.00436e-07
i_vdd_avg           =  -1.81472e-06 from=  1.00000e-08 to=  3.30004e-07
power_avg_uw        =  3.39865e+00


Total analysis time (seconds) = 0.683337

Total elapsed time (seconds) = 0.771 

Total DRAM available = 16384.000 MB.
DRAM currently available =   83.547 MB.
Maximum ngspice program size =   18.375 MB.
Current ngspice program size =   18.375 MB.

