
Note: No compatibility mode selected!


Circuit: GF180MCU library cell aoi21_4 A1_to_ZN__A2=1,B=0

Doing analysis at TEMP = 28.742146 and TNOM = 27.000000

Using SPARSE 1.3 as Direct Linear Solver

Initial Transient Solution
--------------------------

Node                                   Voltage
----                                   -------
vdd                                    1.80615
a1                                           0
a2                                     1.80615
b                                            0
xu1.net_0_0                        5.61489e-09
zn                                     1.80615
xu1.net_0_1                        5.61489e-09
xu1.net_0_2                        5.61489e-09
xu1.net_0_3                        5.61489e-09
xu1.net_1                              1.80615
vfix_b#branch                                0
vfix_a2#branch                               0
vin#branch                                   0
vdd#branch                        -2.58872e-11

 Reference value :  1.76114e-08
 Reference value :  4.55645e-08
 Reference value :  7.27495e-08
 Reference value :  9.91816e-08
 Reference value :  1.26632e-07
 Reference value :  1.56212e-07
 Reference value :  1.83867e-07
 Reference value :  2.12275e-07
 Reference value :  2.40430e-07
 Reference value :  2.66807e-07
 Reference value :  2.93372e-07
 Reference value :  3.21242e-07
No. of Data Rows : 68030

  Measurements for Transient Analysis

tphl                =  1.08726e-09 targ=  2.56633e-08 trig=  2.45760e-08
tplh                =  2.56034e-09 targ=  9.82884e-08 trig=  9.57281e-08
i_vdd_avg           =  -2.31822e-06 from=  1.00000e-08 to=  3.30002e-07
power_avg_uw        =  4.18706e+00


Total analysis time (seconds) = 3.87675

Total elapsed time (seconds) = 3.976 

Total DRAM available = 16384.000 MB.
DRAM currently available =   87.750 MB.
Maximum ngspice program size =   17.422 MB.
Current ngspice program size =   17.422 MB.

