
Note: No compatibility mode selected!


Circuit: GF180MCU library cell nand3_1 A1_to_ZN__A2=1,A3=1

Doing analysis at TEMP = -38.711865 and TNOM = 27.000000

Using SPARSE 1.3 as Direct Linear Solver

Initial Transient Solution
--------------------------

Node                                   Voltage
----                                   -------
vdd                                    1.68882
a1                                           0
a2                                     1.68882
a3                                     1.68882
xu1.net_1                          9.58566e-12
xu1.net_0                          1.91712e-11
zn                                     1.68882
vfix_a3#branch                               0
vfix_a2#branch                               0
vin#branch                                   0
vdd#branch                        -1.70135e-12

 Reference value :  8.08078e-08
 Reference value :  1.82688e-07
 Reference value :  2.79643e-07
No. of Data Rows : 68032

  Measurements for Transient Analysis

tphl                =  6.23067e-09 targ=  3.40183e-08 trig=  2.77877e-08
tplh                =  7.72757e-09 targ=  1.13091e-07 trig=  1.05363e-07
i_vdd_avg           =  -2.15229e-06 from=  1.00000e-08 to=  3.30003e-07
power_avg_uw        =  3.63484e+00


Total analysis time (seconds) = 0.921576

Total elapsed time (seconds) = 0.987 

Total DRAM available = 16384.000 MB.
DRAM currently available =  151.500 MB.
Maximum ngspice program size =   16.344 MB.
Current ngspice program size =   16.344 MB.

