
Note: No compatibility mode selected!


Circuit: GF180MCU library cell nand2_4 A1_to_ZN__A2=1

Doing analysis at TEMP = 14.254923 and TNOM = 27.000000

Using SPARSE 1.3 as Direct Linear Solver

Initial Transient Solution
--------------------------

Node                                   Voltage
----                                   -------
vdd                                    1.66288
a1                                           0
a2                                     1.66288
xu1.net_0_0                        1.86888e-09
zn                                     1.66288
xu1.net_0_1                        1.86888e-09
xu1.net_0_2                        1.86888e-09
xu1.net_0_3                        1.86888e-09
vfix_a2#branch                               0
vin#branch                                   0
vdd#branch                        -8.34273e-12

 Reference value :  3.83378e-08
 Reference value :  8.60978e-08
 Reference value :  1.32433e-07
 Reference value :  1.77443e-07
 Reference value :  2.21768e-07
 Reference value :  2.65058e-07
 Reference value :  3.07908e-07
No. of Data Rows : 68032

  Measurements for Transient Analysis

tphl                =  1.03918e-09 targ=  2.53643e-08 trig=  2.43251e-08
tplh                =  1.47704e-09 targ=  9.64524e-08 trig=  9.49754e-08
i_vdd_avg           =  -2.02432e-06 from=  1.00000e-08 to=  3.30003e-07
power_avg_uw        =  3.36619e+00


Total analysis time (seconds) = 2.08015

Total elapsed time (seconds) = 2.143 

Total DRAM available = 16384.000 MB.
DRAM currently available =  148.562 MB.
Maximum ngspice program size =   16.281 MB.
Current ngspice program size =   16.281 MB.

