
Note: No compatibility mode selected!


Circuit: GF180MCU library cell aoi21_4 A1_to_ZN__A2=1,B=0

Doing analysis at TEMP = 104.633510 and TNOM = 27.000000

Using SPARSE 1.3 as Direct Linear Solver

Initial Transient Solution
--------------------------

Node                                   Voltage
----                                   -------
vdd                                    1.92157
a1                                           0
a2                                     1.92157
b                                            0
xu1.net_0_0                        4.99021e-07
zn                                     1.92156
xu1.net_0_1                        4.99021e-07
xu1.net_0_2                        4.99021e-07
xu1.net_0_3                        4.99021e-07
xu1.net_1                              1.92156
vfix_b#branch                                0
vfix_a2#branch                               0
vin#branch                                   0
vdd#branch                        -8.53874e-10

 Reference value :  2.44975e-08
 Reference value :  5.49002e-08
 Reference value :  8.53952e-08
 Reference value :  1.15338e-07
 Reference value :  1.44858e-07
 Reference value :  1.74558e-07
 Reference value :  2.03715e-07
 Reference value :  2.33035e-07
 Reference value :  2.61605e-07
 Reference value :  2.89978e-07
 Reference value :  3.18578e-07
No. of Data Rows : 68034

  Measurements for Transient Analysis

tphl                =  6.40734e-10 targ=  2.65646e-08 trig=  2.59238e-08
tplh                =  1.60997e-09 targ=  1.01381e-07 trig=  9.97715e-08
i_vdd_avg           =  -9.48439e-07 from=  1.00000e-08 to=  3.30003e-07
power_avg_uw        =  1.82249e+00


Total analysis time (seconds) = 3.20969

Total elapsed time (seconds) = 3.270 

Total DRAM available = 16384.000 MB.
DRAM currently available =  139.781 MB.
Maximum ngspice program size =   17.750 MB.
Current ngspice program size =   17.750 MB.

