
Note: No compatibility mode selected!


Circuit: GF180MCU library cell nand2_1 A1_to_ZN__A2=1

Doing analysis at TEMP = 12.590499 and TNOM = 27.000000

Using SPARSE 1.3 as Direct Linear Solver

Initial Transient Solution
--------------------------

Node                                   Voltage
----                                   -------
vdd                                    1.93163
a1                                           0
a2                                     1.93163
xu1.net_0                          1.56939e-09
zn                                     1.93163
vfix_a2#branch                               0
vin#branch                                   0
vdd#branch                        -2.35532e-12

 Reference value :  9.34312e-08
 Reference value :  2.36026e-07
No. of Data Rows : 68034

  Measurements for Transient Analysis

tphl                =  8.55562e-10 targ=  2.73924e-08 trig=  2.65369e-08
tplh                =  1.64360e-09 targ=  1.03254e-07 trig=  1.01611e-07
i_vdd_avg           =  -3.18446e-07 from=  1.00000e-08 to=  3.30005e-07
power_avg_uw        =  6.15120e-01


Total analysis time (seconds) = 0.613163

Total elapsed time (seconds) = 0.700 

Total DRAM available = 16384.000 MB.
DRAM currently available =  139.781 MB.
Maximum ngspice program size =   16.516 MB.
Current ngspice program size =   16.516 MB.

