
Note: No compatibility mode selected!


Circuit: GF180MCU library cell mux2_1 I0_to_Z__I1=0,S=0

Doing analysis at TEMP = 42.029325 and TNOM = 27.000000

Using SPARSE 1.3 as Direct Linear Solver

Initial Transient Solution
--------------------------

Node                                   Voltage
----                                   -------
vdd                                    1.64396
i0                                           0
i1                                           0
s                                            0
xu1.int04                              1.64396
z                                   8.7337e-09
xu1.net_1                            0.0453171
xu1.net_3                               1.2377
xu1.sel1_n                             1.64396
xu1.net_0                              1.64396
xu1.net_2                              1.64396
vfix_s#branch                                0
vfix_i1#branch                               0
vin#branch                                   0
vdd#branch                        -2.70098e-11

 Reference value :  3.56205e-08
 Reference value :  9.02355e-08
 Reference value :  1.44063e-07
 Reference value :  1.97325e-07
 Reference value :  2.51035e-07
 Reference value :  3.04933e-07
No. of Data Rows : 68034

  Measurements for Transient Analysis

tplh                =  2.67245e-09 targ=  3.12415e-08 trig=  2.85690e-08
tphl                =  3.38764e-09 targ=  1.11095e-07 trig=  1.07707e-07
i_vdd_avg           =  -9.42017e-07 from=  1.00000e-08 to=  3.30003e-07
power_avg_uw        =  1.54864e+00


Total analysis time (seconds) = 1.74465

Total elapsed time (seconds) = 1.817 

Total DRAM available = 16384.000 MB.
DRAM currently available =  140.547 MB.
Maximum ngspice program size =   16.531 MB.
Current ngspice program size =   16.531 MB.

