
Note: No compatibility mode selected!


Circuit: GF180MCU library cell mux2_4 I0_to_Z__I1=0,S=0

Doing analysis at TEMP = 26.201709 and TNOM = 27.000000

Using SPARSE 1.3 as Direct Linear Solver

Initial Transient Solution
--------------------------

Node                                   Voltage
----                                   -------
vdd                                    1.65424
i0                                           0
i1                                           0
s                                            0
xu1.int04                              1.65424
z                                  8.29344e-09
xu1.net_1                            0.0356003
xu1.net_3                              1.19659
xu1.sel1_n                             1.65424
xu1.net_0                              1.65424
xu1.net_2                              1.65424
vfix_s#branch                                0
vfix_i1#branch                               0
vin#branch                                   0
vdd#branch                        -1.64895e-11

 Reference value :  2.46525e-08
 Reference value :  5.97933e-08
 Reference value :  9.63433e-08
 Reference value :  1.33424e-07
 Reference value :  1.70664e-07
 Reference value :  2.08868e-07
 Reference value :  2.45543e-07
 Reference value :  2.81984e-07
 Reference value :  3.19054e-07
No. of Data Rows : 68032

  Measurements for Transient Analysis

tplh                =  1.34425e-09 targ=  2.72697e-08 trig=  2.59254e-08
tphl                =  2.06057e-09 targ=  1.01837e-07 trig=  9.97762e-08
i_vdd_avg           =  -7.69906e-07 from=  1.00000e-08 to=  3.30004e-07
power_avg_uw        =  1.27361e+00


Total analysis time (seconds) = 2.57295

Total elapsed time (seconds) = 2.659 

Total DRAM available = 16384.000 MB.
DRAM currently available =  120.562 MB.
Maximum ngspice program size =   17.859 MB.
Current ngspice program size =   17.859 MB.

