
Note: No compatibility mode selected!


Circuit: GF180MCU library cell inv_4 I_to_ZN

Doing analysis at TEMP = 19.571410 and TNOM = 27.000000

Using SPARSE 1.3 as Direct Linear Solver

Initial Transient Solution
--------------------------

Node                                   Voltage
----                                   -------
vdd                                    1.87542
i                                            0
zn                                     1.87542
vin#branch                                   0
vdd#branch                        -1.03105e-11

 Reference value :  5.15876e-08
 Reference value :  1.26293e-07
 Reference value :  2.09378e-07
 Reference value :  2.84653e-07
No. of Data Rows : 68032

  Measurements for Transient Analysis

tphl                =  6.57196e-10 targ=  2.54547e-08 trig=  2.47975e-08
tplh                =  1.15076e-09 targ=  9.75434e-08 trig=  9.63926e-08
i_vdd_avg           =  -1.72588e-06 from=  1.00000e-08 to=  3.30003e-07
power_avg_uw        =  3.23674e+00


Total analysis time (seconds) = 1.21452

Total elapsed time (seconds) = 1.312 

Total DRAM available = 16384.000 MB.
DRAM currently available =  140.547 MB.
Maximum ngspice program size =   18.094 MB.
Current ngspice program size =   18.094 MB.

