
Note: No compatibility mode selected!


Circuit: GF180MCU library cell inv_1 I_to_ZN

Doing analysis at TEMP = 90.545967 and TNOM = 27.000000

Using SPARSE 1.3 as Direct Linear Solver

Initial Transient Solution
--------------------------

Node                                   Voltage
----                                   -------
vdd                                    1.81316
i                                            0
zn                                     1.81316
vin#branch                                   0
vdd#branch                        -5.22897e-11

 Reference value :  1.40864e-07
No. of Data Rows : 68032

  Measurements for Transient Analysis

tphl                =  2.75658e-09 targ=  3.10094e-08 trig=  2.82529e-08
tplh                =  4.96317e-09 targ=  1.11722e-07 trig=  1.06759e-07
i_vdd_avg           =  -1.42473e-06 from=  1.00000e-08 to=  3.30004e-07
power_avg_uw        =  2.58327e+00


Total analysis time (seconds) = 0.428911

Total elapsed time (seconds) = 0.516 

Total DRAM available = 16384.000 MB.
DRAM currently available =  106.047 MB.
Maximum ngspice program size =   15.562 MB.
Current ngspice program size =   15.562 MB.

