
Note: No compatibility mode selected!


Circuit: GF180MCU library cell oai21_4 A1_to_ZN__A2=0,B=1

Doing analysis at TEMP = -36.448278 and TNOM = 27.000000

Using SPARSE 1.3 as Direct Linear Solver

Initial Transient Solution
--------------------------

Node                                   Voltage
----                                   -------
vdd                                    1.65886
a1                                           0
a2                                           0
b                                      1.65886
zn                                     1.65886
xu1.net_0                          2.53289e-11
xu1.net_1_0                            1.65886
xu1.net_1_1                            1.65886
xu1.net_1_2                            1.65886
xu1.net_1_3                            1.65886
vfix_b#branch                                0
vfix_a2#branch                               0
vin#branch                                   0
vdd#branch                        -1.33768e-11

 Reference value :  1.86864e-08
 Reference value :  4.80749e-08
 Reference value :  7.76299e-08
 Reference value :  1.06995e-07
 Reference value :  1.36522e-07
 Reference value :  1.66147e-07
 Reference value :  1.94488e-07
 Reference value :  2.24850e-07
 Reference value :  2.52185e-07
 Reference value :  2.80137e-07
 Reference value :  3.08337e-07
 Reference value :  3.36552e-07
No. of Data Rows : 68030

  Measurements for Transient Analysis

tphl                =  2.56071e-09 targ=  3.24069e-08 trig=  2.98462e-08
tplh                =  5.80937e-09 targ=  1.17348e-07 trig=  1.11539e-07
i_vdd_avg           =  -2.17571e-06 from=  1.00000e-08 to=  3.30002e-07
power_avg_uw        =  3.60918e+00


Total analysis time (seconds) = 3.20853

Total elapsed time (seconds) = 3.293 

Total DRAM available = 16384.000 MB.
DRAM currently available =  128.969 MB.
Maximum ngspice program size =   14.797 MB.
Current ngspice program size =   14.797 MB.

