
Note: No compatibility mode selected!


Circuit: GF180MCU library cell aoi21_4 A1_to_ZN__A2=1,B=0

Doing analysis at TEMP = -37.775348 and TNOM = 27.000000

Using SPARSE 1.3 as Direct Linear Solver

Initial Transient Solution
--------------------------

Node                                   Voltage
----                                   -------
vdd                                    1.70546
a1                                           0
a2                                     1.70546
b                                            0
xu1.net_0_0                        1.07033e-11
zn                                     1.70546
xu1.net_0_1                        1.07015e-11
xu1.net_0_2                        1.07033e-11
xu1.net_0_3                        1.07015e-11
xu1.net_1                              1.70546
vfix_b#branch                                0
vfix_a2#branch                               0
vin#branch                                   0
vdd#branch                        -1.37506e-11

 Reference value :  1.87314e-08
 Reference value :  4.77309e-08
 Reference value :  7.55059e-08
 Reference value :  1.04701e-07
 Reference value :  1.32334e-07
 Reference value :  1.60284e-07
 Reference value :  1.88768e-07
 Reference value :  2.16721e-07
 Reference value :  2.44681e-07
 Reference value :  2.73369e-07
 Reference value :  3.01119e-07
 Reference value :  3.29679e-07
No. of Data Rows : 68034

  Measurements for Transient Analysis

tphl                =  1.32340e-09 targ=  2.93801e-08 trig=  2.80567e-08
tplh                =  3.20664e-09 targ=  1.09377e-07 trig=  1.06170e-07
i_vdd_avg           =  -1.14413e-06 from=  1.00000e-08 to=  3.30004e-07
power_avg_uw        =  1.95127e+00


Total analysis time (seconds) = 3.50317

Total elapsed time (seconds) = 3.593 

Total DRAM available = 16384.000 MB.
DRAM currently available =   94.797 MB.
Maximum ngspice program size =   18.109 MB.
Current ngspice program size =   18.109 MB.

