
Note: No compatibility mode selected!


Circuit: GF180MCU library cell nand2_1 A1_to_ZN__A2=1

Doing analysis at TEMP = 42.227742 and TNOM = 27.000000

Using SPARSE 1.3 as Direct Linear Solver

Initial Transient Solution
--------------------------

Node                                   Voltage
----                                   -------
vdd                                    1.84185
a1                                           0
a2                                     1.84185
xu1.net_0                          1.45249e-08
zn                                     1.84185
vfix_a2#branch                               0
vin#branch                                   0
vdd#branch                        -5.19698e-12

 Reference value :  9.31470e-08
 Reference value :  2.35017e-07
No. of Data Rows : 68032

  Measurements for Transient Analysis

tphl                =  1.84604e-09 targ=  3.09483e-08 trig=  2.91022e-08
tplh                =  3.44569e-09 targ=  1.12752e-07 trig=  1.09307e-07
i_vdd_avg           =  -5.88564e-07 from=  1.00000e-08 to=  3.30001e-07
power_avg_uw        =  1.08405e+00


Total analysis time (seconds) = 0.650911

Total elapsed time (seconds) = 0.720 

Total DRAM available = 16384.000 MB.
DRAM currently available =  140.547 MB.
Maximum ngspice program size =   13.594 MB.
Current ngspice program size =   13.297 MB.

