
Note: No compatibility mode selected!


Circuit: GF180MCU library cell nor2_1 A1_to_ZN__A2=0

Doing analysis at TEMP = 123.721250 and TNOM = 27.000000

Using SPARSE 1.3 as Direct Linear Solver

Initial Transient Solution
--------------------------

Node                                   Voltage
----                                   -------
vdd                                    1.79073
a1                                           0
a2                                           0
zn                                     1.79071
xu1.net_0                              1.79072
vfix_a2#branch                               0
vin#branch                                   0
vdd#branch                        -4.23171e-10

 Reference value :  1.01710e-07
 Reference value :  2.43285e-07
No. of Data Rows : 68030

  Measurements for Transient Analysis

tphl                =  3.60717e-09 targ=  3.31307e-08 trig=  2.95235e-08
tplh                =  8.14448e-09 targ=  1.18715e-07 trig=  1.10571e-07
i_vdd_avg           =  -1.33387e-06 from=  1.00000e-08 to=  3.30002e-07
power_avg_uw        =  2.38859e+00


Total analysis time (seconds) = 0.666977

Total elapsed time (seconds) = 0.738 

Total DRAM available = 16384.000 MB.
DRAM currently available =  128.969 MB.
Maximum ngspice program size =   16.734 MB.
Current ngspice program size =   16.734 MB.

