
Note: No compatibility mode selected!


Circuit: GF180MCU library cell aoi21_1 A1_to_ZN__A2=1,B=0

Doing analysis at TEMP = 121.922320 and TNOM = 27.000000

Using SPARSE 1.3 as Direct Linear Solver

Initial Transient Solution
--------------------------

Node                                   Voltage
----                                   -------
vdd                                    1.78386
a1                                           0
a2                                     1.78386
b                                            0
xu1.net_0                          1.11152e-06
zn                                     1.78385
xu1.net_1                              1.78386
vfix_b#branch                                0
vfix_a2#branch                               0
vin#branch                                   0
vdd#branch                         -4.1486e-10

 Reference value :  6.28852e-08
 Reference value :  1.62043e-07
 Reference value :  2.60885e-07
No. of Data Rows : 68034

  Measurements for Transient Analysis

tphl                =  1.72045e-09 targ=  3.15743e-08 trig=  2.98539e-08
tplh                =  4.56134e-09 targ=  1.16123e-07 trig=  1.11562e-07
i_vdd_avg           =  -5.21173e-07 from=  1.00000e-08 to=  3.30003e-07
power_avg_uw        =  9.29700e-01


Total analysis time (seconds) = 0.966625

Total elapsed time (seconds) = 1.057 

Total DRAM available = 16384.000 MB.
DRAM currently available =  135.922 MB.
Maximum ngspice program size =   17.562 MB.
Current ngspice program size =   17.562 MB.

