
Note: No compatibility mode selected!


Circuit: GF180MCU library cell inv_1 I_to_ZN

Doing analysis at TEMP = 7.170230 and TNOM = 27.000000

Using SPARSE 1.3 as Direct Linear Solver

Initial Transient Solution
--------------------------

Node                                   Voltage
----                                   -------
vdd                                    1.95914
i                                            0
zn                                     1.95914
vin#branch                                   0
vdd#branch                        -2.23929e-12

 Reference value :  1.52862e-07
No. of Data Rows : 68030

  Measurements for Transient Analysis

tphl                =  8.25336e-10 targ=  2.57289e-08 trig=  2.49036e-08
tplh                =  1.45249e-09 targ=  9.81632e-08 trig=  9.67107e-08
i_vdd_avg           =  -6.63142e-07 from=  1.00000e-08 to=  3.30002e-07
power_avg_uw        =  1.29919e+00


Total analysis time (seconds) = 0.396511

Total elapsed time (seconds) = 0.482 

Total DRAM available = 16384.000 MB.
DRAM currently available =  148.562 MB.
Maximum ngspice program size =   17.125 MB.
Current ngspice program size =   17.125 MB.

