
Note: No compatibility mode selected!


Circuit: GF180MCU library cell inv_4 I_to_ZN

Doing analysis at TEMP = 10.490478 and TNOM = 27.000000

Using SPARSE 1.3 as Direct Linear Solver

Initial Transient Solution
--------------------------

Node                                   Voltage
----                                   -------
vdd                                    1.84239
i                                            0
zn                                     1.84239
vin#branch                                   0
vdd#branch                        -8.74977e-12

 Reference value :  5.10069e-08
 Reference value :  1.29336e-07
 Reference value :  2.03512e-07
 Reference value :  2.83116e-07
No. of Data Rows : 68032

  Measurements for Transient Analysis

tphl                =  2.14044e-10 targ=  2.77562e-08 trig=  2.75422e-08
tplh                =  1.40581e-09 targ=  1.06032e-07 trig=  1.04627e-07
i_vdd_avg           =  -6.73426e-07 from=  1.00000e-08 to=  3.30001e-07
power_avg_uw        =  1.24071e+00


Total analysis time (seconds) = 1.20033

Total elapsed time (seconds) = 1.297 

Total DRAM available = 16384.000 MB.
DRAM currently available =  105.328 MB.
Maximum ngspice program size =   19.141 MB.
Current ngspice program size =   19.141 MB.

