
Note: No compatibility mode selected!


Circuit: GF180MCU library cell nand2_4 A1_to_ZN__A2=1

Doing analysis at TEMP = 64.709128 and TNOM = 27.000000

Using SPARSE 1.3 as Direct Linear Solver

Initial Transient Solution
--------------------------

Node                                   Voltage
----                                   -------
vdd                                    1.73292
a1                                           0
a2                                     1.73292
xu1.net_0_0                        6.13279e-08
zn                                     1.73292
xu1.net_0_1                        6.13279e-08
xu1.net_0_2                        6.13279e-08
xu1.net_0_3                        6.13279e-08
vfix_a2#branch                               0
vin#branch                                   0
vdd#branch                        -5.67804e-11

 Reference value :  2.65275e-08
 Reference value :  6.89640e-08
 Reference value :  1.11554e-07
 Reference value :  1.54095e-07
 Reference value :  1.97624e-07
 Reference value :  2.39104e-07
 Reference value :  2.80045e-07
 Reference value :  3.19130e-07
No. of Data Rows : 68030

  Measurements for Transient Analysis

tphl                =  2.02082e-09 targ=  3.18641e-08 trig=  2.98432e-08
tplh                =  3.84253e-09 targ=  1.15372e-07 trig=  1.11530e-07
i_vdd_avg           =  -2.08664e-06 from=  1.00000e-08 to=  3.30000e-07
power_avg_uw        =  3.61600e+00


Total analysis time (seconds) = 2.55636

Total elapsed time (seconds) = 2.635 

Total DRAM available = 16384.000 MB.
DRAM currently available =   87.750 MB.
Maximum ngspice program size =   17.750 MB.
Current ngspice program size =   17.750 MB.

