
Note: Compatibility modes selected: hs a


Circuit: SKY130 library cell xor2_1 A_to_X__B=0

option SCALE: Scale is set to 1e-06 for instance and model parameters
Doing analysis at TEMP = -8.499403 and TNOM = 27.000000

Using KLU as Direct Linear Solver
 Reference value :  1.86714e-08
 Reference value :  8.07431e-08
 Reference value :  1.40449e-07
 Reference value :  1.96433e-07
 Reference value :  2.61193e-07
 Reference value :  3.25599e-07
No. of Data Rows : 68032

  Measurements for Transient Analysis

tplh                =  1.01443e-09 targ=  3.07222e-08 trig=  2.97078e-08
tphl                =  1.98305e-09 targ=  1.13106e-07 trig=  1.11123e-07
i_vdd_avg           =  -4.28427e-07 from=  1.00000e-08 to=  3.30004e-07
power_avg_uw        =  7.78813e-01


Total analysis time (seconds) = 1.41696

Total elapsed time (seconds) = 1.583 

Total DRAM available = 16384.000 MB.
DRAM currently available =   97.016 MB.
Maximum ngspice program size =   25.172 MB.
Current ngspice program size =   25.172 MB.

