
Note: Compatibility modes selected: hs a


Circuit: SKY130 library cell mux2_4 A0_to_X__A1=0,S=0

option SCALE: Scale is set to 1e-06 for instance and model parameters
Doing analysis at TEMP = -21.506732 and TNOM = 27.000000

Using KLU as Direct Linear Solver
 Reference value :  1.15164e-08
 Reference value :  5.25614e-08
 Reference value :  9.01814e-08
 Reference value :  1.30310e-07
 Reference value :  1.68905e-07
 Reference value :  2.08036e-07
 Reference value :  2.46971e-07
 Reference value :  2.82175e-07
 Reference value :  3.20385e-07
No. of Data Rows : 68032

  Measurements for Transient Analysis

tplh                =  9.66029e-10 targ=  2.75805e-08 trig=  2.66144e-08
tphl                =  1.65097e-09 targ=  1.03494e-07 trig=  1.01843e-07
i_vdd_avg           =  -2.06546e-06 from=  1.00000e-08 to=  3.30000e-07
power_avg_uw        =  3.93607e+00


Total analysis time (seconds) = 2.26724

Total elapsed time (seconds) = 2.438 

Total DRAM available = 16384.000 MB.
DRAM currently available =  154.422 MB.
Maximum ngspice program size =   29.422 MB.
Current ngspice program size =   29.422 MB.

