
Note: Compatibility modes selected: hs a


Circuit: SKY130 library cell nor2_4 A_to_Y__B=0

option SCALE: Scale is set to 1e-06 for instance and model parameters
Doing analysis at TEMP = 37.225706 and TNOM = 27.000000

Using KLU as Direct Linear Solver
 Reference value :  1.36364e-08
 Reference value :  5.58443e-08
 Reference value :  9.78943e-08
 Reference value :  1.41816e-07
 Reference value :  1.87708e-07
 Reference value :  2.31454e-07
 Reference value :  2.82466e-07
 Reference value :  3.37031e-07
No. of Data Rows : 68030

  Measurements for Transient Analysis

tphl                =  6.92957e-10 targ=  2.68339e-08 trig=  2.61409e-08
tplh                =  1.44706e-09 targ=  1.01870e-07 trig=  1.00423e-07
i_vdd_avg           =  -7.49982e-07 from=  1.00000e-08 to=  3.30001e-07
power_avg_uw        =  1.27951e+00


Total analysis time (seconds) = 1.85957

Total elapsed time (seconds) = 2.021 

Total DRAM available = 16384.000 MB.
DRAM currently available =  120.156 MB.
Maximum ngspice program size =   25.000 MB.
Current ngspice program size =   25.000 MB.

