
Note: Compatibility modes selected: hs a


Circuit: SKY130 library cell oai21_1 A1_to_Y__A2=0,B1=1

option SCALE: Scale is set to 1e-06 for instance and model parameters
Doing analysis at TEMP = 49.503456 and TNOM = 27.000000

Using KLU as Direct Linear Solver
 Reference value :  3.43010e-08
 Reference value :  1.35925e-07
 Reference value :  2.33291e-07
 Reference value :  3.34635e-07
No. of Data Rows : 68034

  Measurements for Transient Analysis

tphl                =  1.34932e-09 targ=  2.66511e-08 trig=  2.53018e-08
tplh                =  2.80608e-09 targ=  1.00711e-07 trig=  9.79053e-08
i_vdd_avg           =  -1.42657e-06 from=  1.00000e-08 to=  3.30005e-07
power_avg_uw        =  2.65899e+00


Total analysis time (seconds) = 0.849607

Total elapsed time (seconds) = 1.011 

Total DRAM available = 16384.000 MB.
DRAM currently available =   97.922 MB.
Maximum ngspice program size =   25.797 MB.
Current ngspice program size =   25.797 MB.

