
Note: Compatibility modes selected: hs a


Circuit: SKY130 library cell aoi21_4 A1_to_Y__A2=1,B1=0

option SCALE: Scale is set to 1e-06 for instance and model parameters
Doing analysis at TEMP = 115.181380 and TNOM = 27.000000

Using KLU as Direct Linear Solver
 Reference value :  8.38140e-09
 Reference value :  3.68544e-08
 Reference value :  6.87694e-08
 Reference value :  9.77394e-08
 Reference value :  1.23931e-07
 Reference value :  1.54386e-07
 Reference value :  1.83791e-07
 Reference value :  2.11344e-07
 Reference value :  2.40289e-07
 Reference value :  2.67989e-07
 Reference value :  2.97756e-07
 Reference value :  3.27001e-07
No. of Data Rows : 68030

  Measurements for Transient Analysis

tphl                =  1.31417e-09 targ=  2.94776e-08 trig=  2.81635e-08
tplh                =  1.95199e-09 targ=  1.08442e-07 trig=  1.06490e-07
i_vdd_avg           =  -1.74025e-06 from=  1.00000e-08 to=  3.30001e-07
power_avg_uw        =  3.17574e+00


Total analysis time (seconds) = 3.03293

Total elapsed time (seconds) = 3.200 

Total DRAM available = 16384.000 MB.
DRAM currently available =  154.422 MB.
Maximum ngspice program size =   25.453 MB.
Current ngspice program size =   25.453 MB.

