
Note: Compatibility modes selected: hs a


Circuit: SKY130 library cell nor2_1 A_to_Y__B=0

option SCALE: Scale is set to 1e-06 for instance and model parameters
Doing analysis at TEMP = 115.515820 and TNOM = 27.000000

Using KLU as Direct Linear Solver
 Reference value :  5.93727e-08
 Reference value :  2.01563e-07
No. of Data Rows : 68032

  Measurements for Transient Analysis

tphl                =  3.25565e-09 targ=  3.31033e-08 trig=  2.98476e-08
tplh                =  5.73844e-09 targ=  1.17281e-07 trig=  1.11543e-07
i_vdd_avg           =  -1.72086e-06 from=  1.00000e-08 to=  3.30003e-07
power_avg_uw        =  2.94362e+00


Total analysis time (seconds) = 0.6151

Total elapsed time (seconds) = 0.763 

Total DRAM available = 16384.000 MB.
DRAM currently available =   96.031 MB.
Maximum ngspice program size =   27.344 MB.
Current ngspice program size =   27.344 MB.

