
Note: Compatibility modes selected: hs a


Circuit: SKY130 library cell nor2_1 A_to_Y__B=0

option SCALE: Scale is set to 1e-06 for instance and model parameters
Doing analysis at TEMP = -21.856228 and TNOM = 27.000000

Using KLU as Direct Linear Solver
 Reference value :  4.77069e-08
 Reference value :  1.84973e-07
 Reference value :  3.19281e-07
No. of Data Rows : 68032

  Measurements for Transient Analysis

tphl                =  7.06864e-10 targ=  2.58340e-08 trig=  2.51272e-08
tplh                =  1.76628e-09 targ=  9.91478e-08 trig=  9.73815e-08
i_vdd_avg           =  -4.95838e-07 from=  1.00000e-08 to=  3.30001e-07
power_avg_uw        =  8.65944e-01


Total analysis time (seconds) = 0.63239

Total elapsed time (seconds) = 0.790 

Total DRAM available = 16384.000 MB.
DRAM currently available =  108.859 MB.
Maximum ngspice program size =   27.141 MB.
Current ngspice program size =   27.141 MB.

