
Note: Compatibility modes selected: hs a


Circuit: SKY130 library cell inv_4 A_to_Y

option SCALE: Scale is set to 1e-06 for instance and model parameters
Doing analysis at TEMP = 45.526923 and TNOM = 27.000000

Using KLU as Direct Linear Solver
 Reference value :  3.06025e-08
 Reference value :  1.15737e-07
 Reference value :  2.02232e-07
 Reference value :  2.82562e-07
No. of Data Rows : 68032

  Measurements for Transient Analysis

tphl                =  1.67700e-09 targ=  3.09994e-08 trig=  2.93224e-08
tplh                =  3.12898e-09 targ=  1.13096e-07 trig=  1.09967e-07
i_vdd_avg           =  -2.24797e-06 from=  1.00000e-08 to=  3.30002e-07
power_avg_uw        =  3.93103e+00


Total analysis time (seconds) = 1.05071

Total elapsed time (seconds) = 1.207 

Total DRAM available = 16384.000 MB.
DRAM currently available =  141.719 MB.
Maximum ngspice program size =   24.422 MB.
Current ngspice program size =   24.422 MB.

