
Note: Compatibility modes selected: hs a


Circuit: SKY130 library cell inv_1 A_to_Y

option SCALE: Scale is set to 1e-06 for instance and model parameters
Doing analysis at TEMP = 47.347728 and TNOM = 27.000000

Using KLU as Direct Linear Solver
 Reference value :  7.07608e-08
 Reference value :  3.01079e-07
No. of Data Rows : 68034

  Measurements for Transient Analysis

tphl                =  1.17005e-09 targ=  2.73767e-08 trig=  2.62067e-08
tplh                =  1.96402e-09 targ=  1.02584e-07 trig=  1.00620e-07
i_vdd_avg           =  -1.13152e-06 from=  1.00000e-08 to=  3.30004e-07
power_avg_uw        =  2.20457e+00


Total analysis time (seconds) = 0.378676

Total elapsed time (seconds) = 0.546 

Total DRAM available = 16384.000 MB.
DRAM currently available =  136.625 MB.
Maximum ngspice program size =   25.750 MB.
Current ngspice program size =   25.750 MB.

