
Note: Compatibility modes selected: hs a


Circuit: SKY130 library cell nor2_4 A_to_Y__B=0

option SCALE: Scale is set to 1e-06 for instance and model parameters
Doing analysis at TEMP = 55.146690 and TNOM = 27.000000

Using KLU as Direct Linear Solver
 Reference value :  1.25414e-08
 Reference value :  5.83770e-08
 Reference value :  9.77815e-08
 Reference value :  1.38947e-07
 Reference value :  1.81542e-07
 Reference value :  2.24452e-07
 Reference value :  2.68402e-07
 Reference value :  3.11562e-07
No. of Data Rows : 68032

  Measurements for Transient Analysis

tphl                =  4.73363e-10 targ=  2.52731e-08 trig=  2.47998e-08
tplh                =  9.93871e-10 targ=  9.73931e-08 trig=  9.63993e-08
i_vdd_avg           =  -1.88165e-06 from=  1.00000e-08 to=  3.30002e-07
power_avg_uw        =  3.63731e+00


Total analysis time (seconds) = 2.01263

Total elapsed time (seconds) = 2.180 

Total DRAM available = 16384.000 MB.
DRAM currently available =  136.625 MB.
Maximum ngspice program size =   27.719 MB.
Current ngspice program size =   27.719 MB.

