
Note: Compatibility modes selected: hs a


Circuit: SKY130 library cell nor2_4 A_to_Y__B=0

option SCALE: Scale is set to 1e-06 for instance and model parameters
Doing analysis at TEMP = -15.897929 and TNOM = 27.000000

Using KLU as Direct Linear Solver
 Reference value :  1.02614e-08
 Reference value :  4.85373e-08
 Reference value :  8.52123e-08
 Reference value :  1.22552e-07
 Reference value :  1.62857e-07
 Reference value :  1.99962e-07
 Reference value :  2.39987e-07
 Reference value :  2.79897e-07
 Reference value :  3.19492e-07
No. of Data Rows : 68032

  Measurements for Transient Analysis

tphl                =  5.11217e-10 targ=  2.88411e-08 trig=  2.83299e-08
tplh                =  1.87847e-09 targ=  1.08868e-07 trig=  1.06990e-07
i_vdd_avg           =  -3.88898e-07 from=  1.00000e-08 to=  3.30002e-07
power_avg_uw        =  7.00383e-01


Total analysis time (seconds) = 2.2347

Total elapsed time (seconds) = 2.421 

Total DRAM available = 16384.000 MB.
DRAM currently available =  100.844 MB.
Maximum ngspice program size =   27.812 MB.
Current ngspice program size =   27.812 MB.

