
Note: Compatibility modes selected: hs a


Circuit: SKY130 library cell inv_4 A_to_Y

option SCALE: Scale is set to 1e-06 for instance and model parameters
Doing analysis at TEMP = 76.327175 and TNOM = 27.000000

Using KLU as Direct Linear Solver
 Reference value :  3.69060e-08
 Reference value :  1.21089e-07
 Reference value :  2.08001e-07
 Reference value :  2.90299e-07
No. of Data Rows : 68034

  Measurements for Transient Analysis

tphl                =  4.99908e-10 targ=  2.87342e-08 trig=  2.82342e-08
tplh                =  1.20782e-09 targ=  1.07911e-07 trig=  1.06703e-07
i_vdd_avg           =  -4.57558e-07 from=  1.00000e-08 to=  3.30004e-07
power_avg_uw        =  7.94516e-01


Total analysis time (seconds) = 1.02862

Total elapsed time (seconds) = 1.177 

Total DRAM available = 16384.000 MB.
DRAM currently available =  103.047 MB.
Maximum ngspice program size =   26.438 MB.
Current ngspice program size =   26.438 MB.

