
Note: Compatibility modes selected: hs a


Circuit: SKY130 library cell xor2_1 A_to_X__B=0

option SCALE: Scale is set to 1e-06 for instance and model parameters
Doing analysis at TEMP = 35.830387 and TNOM = 27.000000

Using KLU as Direct Linear Solver
 Reference value :  1.37464e-08
 Reference value :  7.36118e-08
 Reference value :  1.35176e-07
 Reference value :  1.95757e-07
 Reference value :  2.54072e-07
 Reference value :  3.14516e-07
No. of Data Rows : 68032

  Measurements for Transient Analysis

tplh                =  2.45884e-09 targ=  2.73010e-08 trig=  2.48421e-08
tphl                =  9.40550e-10 targ=  9.74670e-08 trig=  9.65264e-08
i_vdd_avg           =  -1.25899e-06 from=  1.00000e-08 to=  3.30001e-07
power_avg_uw        =  2.23881e+00


Total analysis time (seconds) = 1.44879

Total elapsed time (seconds) = 1.629 

Total DRAM available = 16384.000 MB.
DRAM currently available =  100.844 MB.
Maximum ngspice program size =   26.438 MB.
Current ngspice program size =   26.438 MB.

