
Note: Compatibility modes selected: hs a


Circuit: SKY130 library cell oai21_1 A1_to_Y__A2=0,B1=1

option SCALE: Scale is set to 1e-06 for instance and model parameters
Doing analysis at TEMP = 96.527874 and TNOM = 27.000000

Using KLU as Direct Linear Solver
 Reference value :  5.00185e-08
 Reference value :  1.51060e-07
 Reference value :  2.53389e-07
No. of Data Rows : 68032

  Measurements for Transient Analysis

tphl                =  8.40385e-10 targ=  2.75359e-08 trig=  2.66955e-08
tplh                =  1.34610e-09 targ=  1.03433e-07 trig=  1.02087e-07
i_vdd_avg           =  -1.37055e-07 from=  1.00000e-08 to=  3.30005e-07
power_avg_uw        =  2.23559e-01


Total analysis time (seconds) = 0.842524

Total elapsed time (seconds) = 0.988 

Total DRAM available = 16384.000 MB.
DRAM currently available =   99.719 MB.
Maximum ngspice program size =   26.094 MB.
Current ngspice program size =   26.094 MB.

