
Note: Compatibility modes selected: hs a


Circuit: SKY130 library cell nand3_1 A_to_Y__B=1,C=1

option SCALE: Scale is set to 1e-06 for instance and model parameters
Doing analysis at TEMP = 9.595447 and TNOM = 27.000000

Using KLU as Direct Linear Solver
 Reference value :  3.55333e-08
 Reference value :  1.29504e-07
 Reference value :  2.23673e-07
 Reference value :  3.20564e-07
No. of Data Rows : 68032

  Measurements for Transient Analysis

tphl                =  1.76752e-09 targ=  2.76179e-08 trig=  2.58504e-08
tplh                =  2.09663e-09 targ=  1.01648e-07 trig=  9.95513e-08
i_vdd_avg           =  -1.13587e-06 from=  1.00000e-08 to=  3.30004e-07
power_avg_uw        =  2.07260e+00


Total analysis time (seconds) = 0.904496

Total elapsed time (seconds) = 1.048 

Total DRAM available = 16384.000 MB.
DRAM currently available =   77.094 MB.
Maximum ngspice program size =   25.703 MB.
Current ngspice program size =   25.703 MB.

