
Note: Compatibility modes selected: hs a


Circuit: SKY130 library cell nand3_1 A_to_Y__B=1,C=1

option SCALE: Scale is set to 1e-06 for instance and model parameters
Doing analysis at TEMP = 32.091907 and TNOM = 27.000000

Using KLU as Direct Linear Solver
 Reference value :  3.32424e-08
 Reference value :  1.28942e-07
 Reference value :  2.26387e-07
 Reference value :  3.26742e-07
No. of Data Rows : 68032

  Measurements for Transient Analysis

tphl                =  2.91946e-09 targ=  3.09994e-08 trig=  2.80800e-08
tplh                =  3.53140e-09 targ=  1.09771e-07 trig=  1.06240e-07
i_vdd_avg           =  -1.58979e-06 from=  1.00000e-08 to=  3.30002e-07
power_avg_uw        =  2.98994e+00


Total analysis time (seconds) = 0.885442

Total elapsed time (seconds) = 1.033 

Total DRAM available = 16384.000 MB.
DRAM currently available =  102.141 MB.
Maximum ngspice program size =   26.250 MB.
Current ngspice program size =   26.250 MB.

