
Note: Compatibility modes selected: hs a


Circuit: SKY130 library cell mux2_1 A0_to_X__A1=0,S=0

option SCALE: Scale is set to 1e-06 for instance and model parameters
Doing analysis at TEMP = 104.381180 and TNOM = 27.000000

Using KLU as Direct Linear Solver
 Reference value :  1.32664e-08
 Reference value :  6.87015e-08
 Reference value :  1.20271e-07
 Reference value :  1.77476e-07
 Reference value :  2.33642e-07
 Reference value :  2.94551e-07
No. of Data Rows : 68032

  Measurements for Transient Analysis

tplh                =  6.56592e-10 targ=  2.56236e-08 trig=  2.49670e-08
tphl                =  9.02896e-10 targ=  9.78039e-08 trig=  9.69010e-08
i_vdd_avg           =  -5.58804e-07 from=  1.00000e-08 to=  3.30001e-07
power_avg_uw        =  1.03574e+00


Total analysis time (seconds) = 1.5456

Total elapsed time (seconds) = 1.723 

Total DRAM available = 16384.000 MB.
DRAM currently available =  133.516 MB.
Maximum ngspice program size =   26.203 MB.
Current ngspice program size =   26.203 MB.

