
Note: Compatibility modes selected: hs a


Circuit: SKY130 library cell nand3_1 A_to_Y__B=1,C=1

option SCALE: Scale is set to 1e-06 for instance and model parameters
Doing analysis at TEMP = 76.987756 and TNOM = 27.000000

Using KLU as Direct Linear Solver
 Reference value :  3.44900e-08
 Reference value :  1.37643e-07
 Reference value :  2.50095e-07
No. of Data Rows : 68034

  Measurements for Transient Analysis

tphl                =  1.46724e-09 targ=  2.55735e-08 trig=  2.41063e-08
tplh                =  1.17639e-09 targ=  9.54952e-08 trig=  9.43188e-08
i_vdd_avg           =  -1.89661e-06 from=  1.00000e-08 to=  3.30003e-07
power_avg_uw        =  3.75412e+00


Total analysis time (seconds) = 0.803173

Total elapsed time (seconds) = 0.961 

Total DRAM available = 16384.000 MB.
DRAM currently available =  133.516 MB.
Maximum ngspice program size =   26.031 MB.
Current ngspice program size =   26.031 MB.

