
Note: Compatibility modes selected: hs a


Circuit: SKY130 library cell aoi21_4 A1_to_Y__A2=1,B1=0

option SCALE: Scale is set to 1e-06 for instance and model parameters
Doing analysis at TEMP = 18.990271 and TNOM = 27.000000

Using KLU as Direct Linear Solver
 Reference value :  7.15640e-09
 Reference value :  3.49149e-08
 Reference value :  6.17949e-08
 Reference value :  8.96999e-08
 Reference value :  1.16827e-07
 Reference value :  1.44232e-07
 Reference value :  1.71847e-07
 Reference value :  1.99505e-07
 Reference value :  2.28815e-07
 Reference value :  2.56555e-07
 Reference value :  2.84602e-07
 Reference value :  3.15022e-07
No. of Data Rows : 68030

  Measurements for Transient Analysis

tphl                =  1.44668e-09 targ=  2.82679e-08 trig=  2.68212e-08
tplh                =  2.60098e-09 targ=  1.05065e-07 trig=  1.02464e-07
i_vdd_avg           =  -2.35918e-06 from=  1.00000e-08 to=  3.30002e-07
power_avg_uw        =  4.19847e+00


Total analysis time (seconds) = 3.06707

Total elapsed time (seconds) = 3.256 

Total DRAM available = 16384.000 MB.
DRAM currently available =  103.734 MB.
Maximum ngspice program size =   27.359 MB.
Current ngspice program size =   27.359 MB.

