
Note: Compatibility modes selected: hs a


Circuit: SKY130 library cell nor2_4 A_to_Y__B=0

option SCALE: Scale is set to 1e-06 for instance and model parameters
Doing analysis at TEMP = 103.686800 and TNOM = 27.000000

Using KLU as Direct Linear Solver
 Reference value :  1.41964e-08
 Reference value :  6.29079e-08
 Reference value :  1.06518e-07
 Reference value :  1.52173e-07
 Reference value :  1.96438e-07
 Reference value :  2.38658e-07
 Reference value :  2.82368e-07
 Reference value :  3.29118e-07
No. of Data Rows : 68032

  Measurements for Transient Analysis

tphl                =  7.33759e-10 targ=  3.06189e-08 trig=  2.98852e-08
tplh                =  1.80815e-09 targ=  1.13464e-07 trig=  1.11656e-07
i_vdd_avg           =  -1.29347e-06 from=  1.00000e-08 to=  3.30003e-07
power_avg_uw        =  2.41562e+00


Total analysis time (seconds) = 1.94633

Total elapsed time (seconds) = 2.127 

Total DRAM available = 16384.000 MB.
DRAM currently available =  102.531 MB.
Maximum ngspice program size =   28.328 MB.
Current ngspice program size =   28.328 MB.

