
Note: Compatibility modes selected: hs a


Circuit: SKY130 library cell nand3_1 A_to_Y__B=1,C=1

option SCALE: Scale is set to 1e-06 for instance and model parameters
Doing analysis at TEMP = 115.777760 and TNOM = 27.000000

Using KLU as Direct Linear Solver
 Reference value :  3.70634e-08
 Reference value :  1.45694e-07
 Reference value :  2.53343e-07
No. of Data Rows : 68032

  Measurements for Transient Analysis

tphl                =  2.47850e-09 targ=  3.17140e-08 trig=  2.92355e-08
tplh                =  2.69621e-09 targ=  1.12403e-07 trig=  1.09706e-07
i_vdd_avg           =  -4.88278e-07 from=  1.00000e-08 to=  3.30004e-07
power_avg_uw        =  8.05821e-01


Total analysis time (seconds) = 0.801743

Total elapsed time (seconds) = 0.997 

Total DRAM available = 16384.000 MB.
DRAM currently available =   96.031 MB.
Maximum ngspice program size =   25.953 MB.
Current ngspice program size =   25.953 MB.

