
Note: Compatibility modes selected: hs a


Circuit: SKY130 library cell mux2_1 A0_to_X__A1=0,S=0

option SCALE: Scale is set to 1e-06 for instance and model parameters
Doing analysis at TEMP = -36.214968 and TNOM = 27.000000

Using KLU as Direct Linear Solver
 Reference value :  2.12264e-08
 Reference value :  8.42294e-08
 Reference value :  1.41156e-07
 Reference value :  1.98404e-07
 Reference value :  2.53094e-07
 Reference value :  3.11491e-07
No. of Data Rows : 68030

  Measurements for Transient Analysis

tplh                =  2.65739e-09 targ=  2.86459e-08 trig=  2.59885e-08
tphl                =  2.05249e-09 targ=  1.02018e-07 trig=  9.99654e-08
i_vdd_avg           =  -2.19252e-06 from=  1.00000e-08 to=  3.30001e-07
power_avg_uw        =  3.89429e+00


Total analysis time (seconds) = 1.54298

Total elapsed time (seconds) = 1.697 

Total DRAM available = 16384.000 MB.
DRAM currently available =   96.031 MB.
Maximum ngspice program size =   25.766 MB.
Current ngspice program size =   25.766 MB.

