
Note: Compatibility modes selected: hs a


Circuit: SKY130 library cell aoi21_1 A1_to_Y__A2=1,B1=0

option SCALE: Scale is set to 1e-06 for instance and model parameters
Doing analysis at TEMP = -6.507132 and TNOM = 27.000000

Using KLU as Direct Linear Solver
 Reference value :  3.18364e-08
 Reference value :  1.28315e-07
 Reference value :  2.22866e-07
 Reference value :  3.27455e-07
No. of Data Rows : 68032

  Measurements for Transient Analysis

tphl                =  2.27759e-09 targ=  2.88420e-08 trig=  2.65644e-08
tplh                =  4.83763e-09 targ=  1.06531e-07 trig=  1.01693e-07
i_vdd_avg           =  -2.00309e-06 from=  1.00000e-08 to=  3.30000e-07
power_avg_uw        =  3.69497e+00


Total analysis time (seconds) = 0.882324

Total elapsed time (seconds) = 1.048 

Total DRAM available = 16384.000 MB.
DRAM currently available =   97.016 MB.
Maximum ngspice program size =   25.688 MB.
Current ngspice program size =   25.688 MB.

