
Note: Compatibility modes selected: hs a


Circuit: SKY130 library cell mux2_4 A0_to_X__A1=0,S=0

option SCALE: Scale is set to 1e-06 for instance and model parameters
Doing analysis at TEMP = 79.171996 and TNOM = 27.000000

Using KLU as Direct Linear Solver
 Reference value :  1.29614e-08
 Reference value :  5.10307e-08
 Reference value :  8.99857e-08
 Reference value :  1.26099e-07
 Reference value :  1.63929e-07
 Reference value :  2.01121e-07
 Reference value :  2.39166e-07
 Reference value :  2.77939e-07
 Reference value :  3.16844e-07
No. of Data Rows : 68034

  Measurements for Transient Analysis

tplh                =  1.59516e-09 targ=  3.13442e-08 trig=  2.97491e-08
tphl                =  2.46339e-09 targ=  1.13711e-07 trig=  1.11247e-07
i_vdd_avg           =  -2.04288e-06 from=  1.00000e-08 to=  3.30004e-07
power_avg_uw        =  3.50329e+00


Total analysis time (seconds) = 2.26934

Total elapsed time (seconds) = 2.427 

Total DRAM available = 16384.000 MB.
DRAM currently available =  108.859 MB.
Maximum ngspice program size =   26.453 MB.
Current ngspice program size =   26.453 MB.

