
Note: Compatibility modes selected: hs a


Circuit: SKY130 library cell nor2_1 A_to_Y__B=0

option SCALE: Scale is set to 1e-06 for instance and model parameters
Doing analysis at TEMP = -6.402329 and TNOM = 27.000000

Using KLU as Direct Linear Solver
 Reference value :  5.12157e-08
 Reference value :  1.92511e-07
 Reference value :  3.27699e-07
No. of Data Rows : 68034

  Measurements for Transient Analysis

tphl                =  1.17260e-09 targ=  2.89192e-08 trig=  2.77466e-08
tplh                =  2.66541e-09 targ=  1.07905e-07 trig=  1.05240e-07
i_vdd_avg           =  -1.96868e-07 from=  1.00000e-08 to=  3.30004e-07
power_avg_uw        =  3.22592e-01


Total analysis time (seconds) = 0.611538

Total elapsed time (seconds) = 0.767 

Total DRAM available = 16384.000 MB.
DRAM currently available =   99.141 MB.
Maximum ngspice program size =   26.125 MB.
Current ngspice program size =   26.125 MB.

