
Note: Compatibility modes selected: hs a


Circuit: SKY130 library cell inv_4 A_to_Y

option SCALE: Scale is set to 1e-06 for instance and model parameters
Doing analysis at TEMP = -21.569371 and TNOM = 27.000000

Using KLU as Direct Linear Solver
 Reference value :  3.56872e-08
 Reference value :  1.22112e-07
 Reference value :  2.15547e-07
 Reference value :  3.01637e-07
No. of Data Rows : 68032

  Measurements for Transient Analysis

tphl                =  1.03949e-09 targ=  2.70718e-08 trig=  2.60323e-08
tplh                =  1.91305e-09 targ=  1.02010e-07 trig=  1.00097e-07
i_vdd_avg           =  -1.49632e-06 from=  1.00000e-08 to=  3.30002e-07
power_avg_uw        =  2.45738e+00


Total analysis time (seconds) = 0.971889

Total elapsed time (seconds) = 1.118 

Total DRAM available = 16384.000 MB.
DRAM currently available =  116.094 MB.
Maximum ngspice program size =   25.734 MB.
Current ngspice program size =   25.734 MB.

