
Note: Compatibility modes selected: hs a


Circuit: SKY130 library cell nand3_4 A_to_Y__B=1,C=1

option SCALE: Scale is set to 1e-06 for instance and model parameters
Doing analysis at TEMP = 34.867824 and TNOM = 27.000000

Using KLU as Direct Linear Solver
 Reference value :  9.13140e-09
 Reference value :  3.99875e-08
 Reference value :  6.93025e-08
 Reference value :  9.88425e-08
 Reference value :  1.26297e-07
 Reference value :  1.56097e-07
 Reference value :  1.87473e-07
 Reference value :  2.16502e-07
 Reference value :  2.46492e-07
 Reference value :  2.75007e-07
 Reference value :  3.02487e-07
 Reference value :  3.32627e-07
No. of Data Rows : 68032

  Measurements for Transient Analysis

tphl                =  2.09271e-09 targ=  3.10602e-08 trig=  2.89675e-08
tplh                =  3.01783e-09 targ=  1.11920e-07 trig=  1.08902e-07
i_vdd_avg           =  -1.51538e-06 from=  1.00000e-08 to=  3.30002e-07
power_avg_uw        =  2.52245e+00


Total analysis time (seconds) = 2.92163

Total elapsed time (seconds) = 3.088 

Total DRAM available = 16384.000 MB.
DRAM currently available =   82.844 MB.
Maximum ngspice program size =   26.516 MB.
Current ngspice program size =   26.516 MB.

