
Note: Compatibility modes selected: hs a


Circuit: SKY130 library cell nand3_1 A_to_Y__B=1,C=1

option SCALE: Scale is set to 1e-06 for instance and model parameters
Doing analysis at TEMP = 58.084703 and TNOM = 27.000000

Using KLU as Direct Linear Solver
 Reference value :  2.95225e-08
 Reference value :  1.35836e-07
 Reference value :  2.33324e-07
 Reference value :  3.29001e-07
No. of Data Rows : 68030

  Measurements for Transient Analysis

tphl                =  3.62034e-10 targ=  2.81054e-08 trig=  2.77434e-08
tplh                =  8.97380e-10 targ=  1.06127e-07 trig=  1.05230e-07
i_vdd_avg           =  -6.05878e-08 from=  1.00000e-08 to=  3.30001e-07
power_avg_uw        =  1.05924e-01


Total analysis time (seconds) = 0.859437

Total elapsed time (seconds) = 1.023 

Total DRAM available = 16384.000 MB.
DRAM currently available =   79.500 MB.
Maximum ngspice program size =   24.484 MB.
Current ngspice program size =   24.484 MB.

