
Note: Compatibility modes selected: hs a


Circuit: SKY130 library cell inv_1 A_to_Y

option SCALE: Scale is set to 1e-06 for instance and model parameters
Doing analysis at TEMP = -38.884761 and TNOM = 27.000000

Using KLU as Direct Linear Solver
 Reference value :  1.11814e-07
No. of Data Rows : 68034

  Measurements for Transient Analysis

tphl                =  7.89834e-10 targ=  2.81316e-08 trig=  2.73417e-08
tplh                =  1.93333e-09 targ=  1.05959e-07 trig=  1.04025e-07
i_vdd_avg           =  -1.01621e-07 from=  1.00000e-08 to=  3.30004e-07
power_avg_uw        =  1.70250e-01


Total analysis time (seconds) = 0.330545

Total elapsed time (seconds) = 0.478 

Total DRAM available = 16384.000 MB.
DRAM currently available =  274.641 MB.
Maximum ngspice program size =   25.625 MB.
Current ngspice program size =   25.625 MB.

