
Note: Compatibility modes selected: hs a


Circuit: SKY130 library cell aoi21_4 A1_to_Y__A2=1,B1=0

option SCALE: Scale is set to 1e-06 for instance and model parameters
Doing analysis at TEMP = -25.873155 and TNOM = 27.000000

Using KLU as Direct Linear Solver
 Reference value :  9.23640e-09
 Reference value :  3.99004e-08
 Reference value :  7.02154e-08
 Reference value :  9.80754e-08
 Reference value :  1.27083e-07
 Reference value :  1.56423e-07
 Reference value :  1.85168e-07
 Reference value :  2.14525e-07
 Reference value :  2.45735e-07
 Reference value :  2.72278e-07
 Reference value :  2.98368e-07
 Reference value :  3.26658e-07
No. of Data Rows : 68034

  Measurements for Transient Analysis

tphl                =  5.59718e-10 targ=  2.59362e-08 trig=  2.53765e-08
tplh                =  1.16930e-09 targ=  9.92987e-08 trig=  9.81294e-08
i_vdd_avg           =  -1.30949e-06 from=  1.00000e-08 to=  3.30003e-07
power_avg_uw        =  2.56595e+00


Total analysis time (seconds) = 2.99908

Total elapsed time (seconds) = 3.171 

Total DRAM available = 16384.000 MB.
DRAM currently available =  102.141 MB.
Maximum ngspice program size =   27.922 MB.
Current ngspice program size =   27.922 MB.

