
Note: Compatibility modes selected: hs a


Circuit: SKY130 library cell oai21_4 A1_to_Y__A2=0,B1=1

option SCALE: Scale is set to 1e-06 for instance and model parameters
Doing analysis at TEMP = 74.409833 and TNOM = 27.000000

Using KLU as Direct Linear Solver
 Reference value :  1.10614e-08
 Reference value :  3.84140e-08
 Reference value :  6.80140e-08
 Reference value :  9.69640e-08
 Reference value :  1.26540e-07
 Reference value :  1.55700e-07
 Reference value :  1.86183e-07
 Reference value :  2.14819e-07
 Reference value :  2.42719e-07
 Reference value :  2.71085e-07
 Reference value :  3.01130e-07
 Reference value :  3.33445e-07
No. of Data Rows : 68030

  Measurements for Transient Analysis

tphl                =  1.42109e-09 targ=  2.77568e-08 trig=  2.63357e-08
tplh                =  2.39128e-09 targ=  1.03399e-07 trig=  1.01007e-07
i_vdd_avg           =  -2.18285e-06 from=  1.00000e-08 to=  3.30000e-07
power_avg_uw        =  3.62743e+00


Total analysis time (seconds) = 2.93899

Total elapsed time (seconds) = 3.102 

Total DRAM available = 16384.000 MB.
DRAM currently available =  133.516 MB.
Maximum ngspice program size =   27.141 MB.
Current ngspice program size =   27.141 MB.

