
Note: Compatibility modes selected: hs a


Circuit: SKY130 library cell xor2_4 A_to_X__B=0

option SCALE: Scale is set to 1e-06 for instance and model parameters
Doing analysis at TEMP = -27.842894 and TNOM = 27.000000

Using KLU as Direct Linear Solver
 Reference value :  4.32140e-09
 Reference value :  2.17264e-08
 Reference value :  3.78313e-08
 Reference value :  5.56463e-08
 Reference value :  7.39463e-08
 Reference value :  9.12213e-08
 Reference value :  1.09061e-07
 Reference value :  1.26120e-07
 Reference value :  1.44000e-07
 Reference value :  1.61270e-07
 Reference value :  1.79605e-07
 Reference value :  1.97311e-07
 Reference value :  2.11886e-07
 Reference value :  2.28641e-07
 Reference value :  2.44291e-07
 Reference value :  2.59331e-07
 Reference value :  2.75380e-07
 Reference value :  2.90845e-07
 Reference value :  3.06050e-07
 Reference value :  3.21860e-07
 Reference value :  3.38240e-07
No. of Data Rows : 68032

  Measurements for Transient Analysis

tplh                =  1.26535e-09 targ=  2.90947e-08 trig=  2.78294e-08
tphl                =  1.64120e-09 targ=  1.07129e-07 trig=  1.05488e-07
i_vdd_avg           =  -2.36781e-06 from=  1.00000e-08 to=  3.30000e-07
power_avg_uw        =  4.38617e+00


Total analysis time (seconds) = 5.17989

Total elapsed time (seconds) = 5.359 

Total DRAM available = 16384.000 MB.
DRAM currently available =  100.844 MB.
Maximum ngspice program size =   27.984 MB.
Current ngspice program size =   27.984 MB.

