
Note: Compatibility modes selected: hs a


Circuit: SKY130 library cell inv_4 A_to_Y

option SCALE: Scale is set to 1e-06 for instance and model parameters
Doing analysis at TEMP = 21.308060 and TNOM = 27.000000

Using KLU as Direct Linear Solver
 Reference value :  2.67598e-08
 Reference value :  1.02882e-07
 Reference value :  1.84278e-07
 Reference value :  2.67887e-07
No. of Data Rows : 68030

  Measurements for Transient Analysis

tphl                =  4.42299e-10 targ=  2.55934e-08 trig=  2.51511e-08
tplh                =  8.34469e-10 targ=  9.82879e-08 trig=  9.74534e-08
i_vdd_avg           =  -1.02063e-06 from=  1.00000e-08 to=  3.30002e-07
power_avg_uw        =  1.89747e+00


Total analysis time (seconds) = 1.11139

Total elapsed time (seconds) = 1.265 

Total DRAM available = 16384.000 MB.
DRAM currently available =   97.156 MB.
Maximum ngspice program size =   25.953 MB.
Current ngspice program size =   25.953 MB.

