
Note: Compatibility modes selected: hs a


Circuit: SKY130 library cell aoi21_4 A1_to_Y__A2=1,B1=0

option SCALE: Scale is set to 1e-06 for instance and model parameters
Doing analysis at TEMP = 14.739217 and TNOM = 27.000000

Using KLU as Direct Linear Solver
 Reference value :  7.96640e-09
 Reference value :  3.78237e-08
 Reference value :  6.72537e-08
 Reference value :  9.46737e-08
 Reference value :  1.22240e-07
 Reference value :  1.51110e-07
 Reference value :  1.79640e-07
 Reference value :  2.07064e-07
 Reference value :  2.36149e-07
 Reference value :  2.65699e-07
 Reference value :  2.93350e-07
 Reference value :  3.23390e-07
No. of Data Rows : 68032

  Measurements for Transient Analysis

tphl                =  1.05040e-09 targ=  2.82735e-08 trig=  2.72231e-08
tplh                =  2.06725e-09 targ=  1.05737e-07 trig=  1.03669e-07
i_vdd_avg           =  -6.36321e-07 from=  1.00000e-08 to=  3.30005e-07
power_avg_uw        =  1.05026e+00


Total analysis time (seconds) = 3.04349

Total elapsed time (seconds) = 3.211 

Total DRAM available = 16384.000 MB.
DRAM currently available =   99.141 MB.
Maximum ngspice program size =   26.328 MB.
Current ngspice program size =   26.328 MB.

