
Note: Compatibility modes selected: hs a


Circuit: SKY130 library cell nand2_4 A_to_Y__B=1

option SCALE: Scale is set to 1e-06 for instance and model parameters
Doing analysis at TEMP = -20.493614 and TNOM = 27.000000

Using KLU as Direct Linear Solver
 Reference value :  1.49864e-08
 Reference value :  5.71468e-08
 Reference value :  1.03167e-07
 Reference value :  1.48421e-07
 Reference value :  1.95793e-07
 Reference value :  2.40032e-07
 Reference value :  2.86601e-07
 Reference value :  3.36211e-07
No. of Data Rows : 68032

  Measurements for Transient Analysis

tphl                =  7.87050e-10 targ=  3.07292e-08 trig=  2.99421e-08
tplh                =  2.38557e-09 targ=  1.14212e-07 trig=  1.11826e-07
i_vdd_avg           =  -7.61083e-07 from=  1.00000e-08 to=  3.30001e-07
power_avg_uw        =  1.41603e+00


Total analysis time (seconds) = 1.91086

Total elapsed time (seconds) = 2.067 

Total DRAM available = 16384.000 MB.
DRAM currently available =   77.609 MB.
Maximum ngspice program size =   25.484 MB.
Current ngspice program size =   25.484 MB.

