
Note: Compatibility modes selected: hs a


Circuit: SKY130 library cell mux2_4 A0_to_X__A1=0,S=0

option SCALE: Scale is set to 1e-06 for instance and model parameters
Doing analysis at TEMP = -6.542973 and TNOM = 27.000000

Using KLU as Direct Linear Solver
 Reference value :  1.02764e-08
 Reference value :  4.65555e-08
 Reference value :  8.23055e-08
 Reference value :  1.18863e-07
 Reference value :  1.56613e-07
 Reference value :  1.91415e-07
 Reference value :  2.28265e-07
 Reference value :  2.65850e-07
 Reference value :  3.00898e-07
 Reference value :  3.37118e-07
No. of Data Rows : 68034

  Measurements for Transient Analysis

tplh                =  1.19827e-09 targ=  2.89073e-08 trig=  2.77090e-08
tphl                =  2.20052e-09 targ=  1.07327e-07 trig=  1.05127e-07
i_vdd_avg           =  -1.23680e-06 from=  1.00000e-08 to=  3.30003e-07
power_avg_uw        =  2.19070e+00


Total analysis time (seconds) = 2.36994

Total elapsed time (seconds) = 2.543 

Total DRAM available = 16384.000 MB.
DRAM currently available =  103.734 MB.
Maximum ngspice program size =   27.547 MB.
Current ngspice program size =   27.547 MB.

