
Note: Compatibility modes selected: hs a


Circuit: SKY130 library cell mux2_1 A0_to_X__A1=0,S=0

option SCALE: Scale is set to 1e-06 for instance and model parameters
Doing analysis at TEMP = 7.802614 and TNOM = 27.000000

Using KLU as Direct Linear Solver
 Reference value :  1.72464e-08
 Reference value :  6.71381e-08
 Reference value :  1.23374e-07
 Reference value :  1.79684e-07
 Reference value :  2.30078e-07
 Reference value :  2.82329e-07
 Reference value :  3.35874e-07
No. of Data Rows : 68032

  Measurements for Transient Analysis

tplh                =  1.51293e-09 targ=  2.96282e-08 trig=  2.81153e-08
tphl                =  2.21756e-09 targ=  1.08563e-07 trig=  1.06346e-07
i_vdd_avg           =  -1.47075e-06 from=  1.00000e-08 to=  3.30004e-07
power_avg_uw        =  2.75452e+00


Total analysis time (seconds) = 1.65148

Total elapsed time (seconds) = 1.822 

Total DRAM available = 16384.000 MB.
DRAM currently available =   97.156 MB.
Maximum ngspice program size =   28.047 MB.
Current ngspice program size =   28.047 MB.

