
Note: Compatibility modes selected: hs a


Circuit: SKY130 library cell mux2_1 A0_to_X__A1=0,S=0

option SCALE: Scale is set to 1e-06 for instance and model parameters
Doing analysis at TEMP = 45.425720 and TNOM = 27.000000

Using KLU as Direct Linear Solver
 Reference value :  2.01964e-08
 Reference value :  7.35387e-08
 Reference value :  1.25810e-07
 Reference value :  1.79510e-07
 Reference value :  2.33054e-07
 Reference value :  2.94040e-07
No. of Data Rows : 68032

  Measurements for Transient Analysis

tplh                =  8.50606e-10 targ=  3.02312e-08 trig=  2.93806e-08
tphl                =  2.07464e-09 targ=  1.12216e-07 trig=  1.10142e-07
i_vdd_avg           =  -1.18093e-06 from=  1.00000e-08 to=  3.30005e-07
power_avg_uw        =  2.33769e+00


Total analysis time (seconds) = 1.61516

Total elapsed time (seconds) = 1.775 

Total DRAM available = 16384.000 MB.
DRAM currently available =  154.422 MB.
Maximum ngspice program size =   26.688 MB.
Current ngspice program size =   26.688 MB.

