
Note: Compatibility modes selected: hs a


Circuit: SKY130 library cell xor2_1 A_to_X__B=0

option SCALE: Scale is set to 1e-06 for instance and model parameters
Doing analysis at TEMP = 101.564630 and TNOM = 27.000000

Using KLU as Direct Linear Solver
 Reference value :  2.05564e-08
 Reference value :  8.96082e-08
 Reference value :  1.52039e-07
 Reference value :  2.13648e-07
 Reference value :  2.81444e-07
No. of Data Rows : 68032

  Measurements for Transient Analysis

tplh                =  2.68131e-09 targ=  2.94691e-08 trig=  2.67878e-08
tphl                =  1.30635e-09 targ=  1.03670e-07 trig=  1.02363e-07
i_vdd_avg           =  -2.14150e-06 from=  1.00000e-08 to=  3.30004e-07
power_avg_uw        =  4.17343e+00


Total analysis time (seconds) = 1.34032

Total elapsed time (seconds) = 1.502 

Total DRAM available = 16384.000 MB.
DRAM currently available =  104.906 MB.
Maximum ngspice program size =   26.797 MB.
Current ngspice program size =   26.797 MB.

