
Note: Compatibility modes selected: hs a


Circuit: SKY130 library cell mux2_4 A0_to_X__A1=0,S=0

option SCALE: Scale is set to 1e-06 for instance and model parameters
Doing analysis at TEMP = 31.770189 and TNOM = 27.000000

Using KLU as Direct Linear Solver
 Reference value :  9.96640e-09
 Reference value :  4.51697e-08
 Reference value :  8.31447e-08
 Reference value :  1.19512e-07
 Reference value :  1.55907e-07
 Reference value :  1.91190e-07
 Reference value :  2.29765e-07
 Reference value :  2.67672e-07
 Reference value :  3.05422e-07
No. of Data Rows : 68030

  Measurements for Transient Analysis

tplh                =  7.93307e-10 targ=  2.59444e-08 trig=  2.51511e-08
tphl                =  1.04985e-09 targ=  9.85031e-08 trig=  9.74533e-08
i_vdd_avg           =  -1.63843e-06 from=  1.00000e-08 to=  3.30002e-07
power_avg_uw        =  3.00963e+00


Total analysis time (seconds) = 2.36545

Total elapsed time (seconds) = 2.539 

Total DRAM available = 16384.000 MB.
DRAM currently available =   99.141 MB.
Maximum ngspice program size =   25.484 MB.
Current ngspice program size =   25.484 MB.

