
Note: Compatibility modes selected: hs a


Circuit: SKY130 library cell xor2_4 A_to_X__B=0

option SCALE: Scale is set to 1e-06 for instance and model parameters
Doing analysis at TEMP = 120.746520 and TNOM = 27.000000

Using KLU as Direct Linear Solver
 Reference value :  5.22140e-09
 Reference value :  2.36964e-08
 Reference value :  4.14392e-08
 Reference value :  5.93092e-08
 Reference value :  7.64342e-08
 Reference value :  9.33442e-08
 Reference value :  1.10364e-07
 Reference value :  1.27451e-07
 Reference value :  1.45001e-07
 Reference value :  1.63011e-07
 Reference value :  1.80756e-07
 Reference value :  1.97959e-07
 Reference value :  2.16424e-07
 Reference value :  2.34114e-07
 Reference value :  2.51679e-07
 Reference value :  2.69289e-07
 Reference value :  2.88991e-07
 Reference value :  3.07006e-07
 Reference value :  3.24941e-07
No. of Data Rows : 68030

  Measurements for Transient Analysis

tplh                =  2.84720e-10 targ=  2.95006e-08 trig=  2.92158e-08
tphl                =  8.91231e-10 targ=  1.10539e-07 trig=  1.09648e-07
i_vdd_avg           =  -1.52755e-06 from=  1.00000e-08 to=  3.30001e-07
power_avg_uw        =  3.00301e+00


Total analysis time (seconds) = 4.8522

Total elapsed time (seconds) = 5.039 

Total DRAM available = 16384.000 MB.
DRAM currently available =  104.906 MB.
Maximum ngspice program size =   29.844 MB.
Current ngspice program size =   29.844 MB.

