
Note: Compatibility modes selected: hs a


Circuit: SKY130 library cell nor2_4 A_to_Y__B=0

option SCALE: Scale is set to 1e-06 for instance and model parameters
Doing analysis at TEMP = 2.067181 and TNOM = 27.000000

Using KLU as Direct Linear Solver
 Reference value :  1.31864e-08
 Reference value :  5.78400e-08
 Reference value :  1.00279e-07
 Reference value :  1.45308e-07
 Reference value :  1.88678e-07
 Reference value :  2.35395e-07
 Reference value :  2.80858e-07
 Reference value :  3.25193e-07
No. of Data Rows : 68034

  Measurements for Transient Analysis

tphl                =  1.22055e-09 targ=  2.83618e-08 trig=  2.71413e-08
tplh                =  2.62593e-09 targ=  1.06050e-07 trig=  1.03424e-07
i_vdd_avg           =  -1.15562e-06 from=  1.00000e-08 to=  3.30003e-07
power_avg_uw        =  1.89545e+00


Total analysis time (seconds) = 1.94885

Total elapsed time (seconds) = 2.112 

Total DRAM available = 16384.000 MB.
DRAM currently available =  104.906 MB.
Maximum ngspice program size =   28.484 MB.
Current ngspice program size =   28.484 MB.

