
Note: Compatibility modes selected: hs a


Circuit: SKY130 library cell nand2_4 A_to_Y__B=1

option SCALE: Scale is set to 1e-06 for instance and model parameters
Doing analysis at TEMP = -2.494855 and TNOM = 27.000000

Using KLU as Direct Linear Solver
 Reference value :  1.23064e-08
 Reference value :  5.82882e-08
 Reference value :  1.02074e-07
 Reference value :  1.47689e-07
 Reference value :  1.92583e-07
 Reference value :  2.35533e-07
 Reference value :  2.79834e-07
 Reference value :  3.21284e-07
No. of Data Rows : 68032

  Measurements for Transient Analysis

tphl                =  3.98601e-10 targ=  2.47840e-08 trig=  2.43853e-08
tplh                =  5.77751e-10 targ=  9.57338e-08 trig=  9.51560e-08
i_vdd_avg           =  -1.08846e-06 from=  1.00000e-08 to=  3.30004e-07
power_avg_uw        =  1.82501e+00


Total analysis time (seconds) = 1.97606

Total elapsed time (seconds) = 2.128 

Total DRAM available = 16384.000 MB.
DRAM currently available =  108.859 MB.
Maximum ngspice program size =   26.891 MB.
Current ngspice program size =   26.891 MB.

