
Note: Compatibility modes selected: hs a


Circuit: SKY130 library cell xor2_1 A_to_X__B=0

option SCALE: Scale is set to 1e-06 for instance and model parameters
Doing analysis at TEMP = 62.333708 and TNOM = 27.000000

Using KLU as Direct Linear Solver
 Reference value :  2.23064e-08
 Reference value :  9.02020e-08
 Reference value :  1.60076e-07
 Reference value :  2.24767e-07
 Reference value :  2.90136e-07
No. of Data Rows : 68032

  Measurements for Transient Analysis

tplh                =  4.82155e-09 targ=  3.28038e-08 trig=  2.79822e-08
tphl                =  2.14899e-09 targ=  1.08096e-07 trig=  1.05947e-07
i_vdd_avg           =  -2.20351e-06 from=  1.00000e-08 to=  3.30001e-07
power_avg_uw        =  3.76344e+00


Total analysis time (seconds) = 1.27633

Total elapsed time (seconds) = 1.443 

Total DRAM available = 16384.000 MB.
DRAM currently available =  136.625 MB.
Maximum ngspice program size =   25.578 MB.
Current ngspice program size =   25.578 MB.

