
Note: Compatibility modes selected: hs a


Circuit: SKY130 library cell nand2_4 A_to_Y__B=1

option SCALE: Scale is set to 1e-06 for instance and model parameters
Doing analysis at TEMP = 93.181012 and TNOM = 27.000000

Using KLU as Direct Linear Solver
 Reference value :  1.30564e-08
 Reference value :  5.72643e-08
 Reference value :  1.00571e-07
 Reference value :  1.43436e-07
 Reference value :  1.86974e-07
 Reference value :  2.25034e-07
 Reference value :  2.66396e-07
 Reference value :  3.06811e-07
No. of Data Rows : 68030

  Measurements for Transient Analysis

tphl                =  3.05080e-10 targ=  2.55585e-08 trig=  2.52534e-08
tplh                =  4.68589e-10 targ=  9.82288e-08 trig=  9.77602e-08
i_vdd_avg           =  -3.91442e-07 from=  1.00000e-08 to=  3.30001e-07
power_avg_uw        =  7.21151e-01


Total analysis time (seconds) = 2.07611

Total elapsed time (seconds) = 2.231 

Total DRAM available = 16384.000 MB.
DRAM currently available =  105.734 MB.
Maximum ngspice program size =   24.891 MB.
Current ngspice program size =   24.891 MB.

