
Note: Compatibility modes selected: hs a


Circuit: SKY130 library cell inv_1 A_to_Y

option SCALE: Scale is set to 1e-06 for instance and model parameters
Doing analysis at TEMP = 34.352686 and TNOM = 27.000000

Using KLU as Direct Linear Solver
 Reference value :  7.89886e-08
 Reference value :  2.94175e-07
No. of Data Rows : 68032

  Measurements for Transient Analysis

tphl                =  2.38764e-09 targ=  3.11982e-08 trig=  2.88105e-08
tplh                =  4.06516e-09 targ=  1.12497e-07 trig=  1.08432e-07
i_vdd_avg           =  -1.14518e-06 from=  1.00000e-08 to=  3.30005e-07
power_avg_uw        =  1.97166e+00


Total analysis time (seconds) = 0.38872

Total elapsed time (seconds) = 0.546 

Total DRAM available = 16384.000 MB.
DRAM currently available =  103.047 MB.
Maximum ngspice program size =   27.203 MB.
Current ngspice program size =   27.203 MB.

