
Note: Compatibility modes selected: hs a


Circuit: SKY130 library cell nand2_1 A_to_Y__B=1

option SCALE: Scale is set to 1e-06 for instance and model parameters
Doing analysis at TEMP = -11.282389 and TNOM = 27.000000

Using KLU as Direct Linear Solver
 Reference value :  4.10725e-08
 Reference value :  1.84483e-07
 Reference value :  3.18123e-07
No. of Data Rows : 68032

  Measurements for Transient Analysis

tphl                =  2.41400e-09 targ=  2.98465e-08 trig=  2.74325e-08
tplh                =  3.57777e-09 targ=  1.07875e-07 trig=  1.04298e-07
i_vdd_avg           =  -1.85173e-06 from=  1.00000e-08 to=  3.30003e-07
power_avg_uw        =  3.48072e+00


Total analysis time (seconds) = 0.627556

Total elapsed time (seconds) = 0.789 

Total DRAM available = 16384.000 MB.
DRAM currently available =   86.203 MB.
Maximum ngspice program size =   27.109 MB.
Current ngspice program size =   27.109 MB.

