
Note: Compatibility modes selected: hs a


Circuit: SKY130 library cell xor2_4 A_to_X__B=0

option SCALE: Scale is set to 1e-06 for instance and model parameters
Doing analysis at TEMP = 52.599880 and TNOM = 27.000000

Using KLU as Direct Linear Solver
 Reference value :  4.15640e-09
 Reference value :  2.17564e-08
 Reference value :  3.75394e-08
 Reference value :  5.65444e-08
 Reference value :  7.38794e-08
 Reference value :  9.14444e-08
 Reference value :  1.08596e-07
 Reference value :  1.25936e-07
 Reference value :  1.44051e-07
 Reference value :  1.61171e-07
 Reference value :  1.78896e-07
 Reference value :  1.97669e-07
 Reference value :  2.15754e-07
 Reference value :  2.32329e-07
 Reference value :  2.49269e-07
 Reference value :  2.66631e-07
 Reference value :  2.84616e-07
 Reference value :  3.02536e-07
 Reference value :  3.18131e-07
 Reference value :  3.35806e-07
No. of Data Rows : 68030

  Measurements for Transient Analysis

tplh                =  1.27305e-09 targ=  2.66115e-08 trig=  2.53385e-08
tphl                =  9.53990e-10 targ=  9.89694e-08 trig=  9.80154e-08
i_vdd_avg           =  -1.59674e-06 from=  1.00000e-08 to=  3.30001e-07
power_avg_uw        =  2.59991e+00


Total analysis time (seconds) = 4.97249

Total elapsed time (seconds) = 5.152 

Total DRAM available = 16384.000 MB.
DRAM currently available =  136.625 MB.
Maximum ngspice program size =   28.875 MB.
Current ngspice program size =   28.875 MB.

