
Note: Compatibility modes selected: hs a


Circuit: SKY130 library cell inv_4 A_to_Y

option SCALE: Scale is set to 1e-06 for instance and model parameters
Doing analysis at TEMP = 5.680668 and TNOM = 27.000000

Using KLU as Direct Linear Solver
 Reference value :  2.44825e-08
 Reference value :  1.06065e-07
 Reference value :  1.84398e-07
 Reference value :  2.65765e-07
No. of Data Rows : 68034

  Measurements for Transient Analysis

tphl                =  8.20515e-10 targ=  2.82243e-08 trig=  2.74038e-08
tplh                =  1.87189e-09 targ=  1.06083e-07 trig=  1.04211e-07
i_vdd_avg           =  -1.36281e-06 from=  1.00000e-08 to=  3.30003e-07
power_avg_uw        =  2.54041e+00


Total analysis time (seconds) = 1.10215

Total elapsed time (seconds) = 1.256 

Total DRAM available = 16384.000 MB.
DRAM currently available =  104.266 MB.
Maximum ngspice program size =   24.688 MB.
Current ngspice program size =   24.688 MB.

