
Note: Compatibility modes selected: hs a


Circuit: SKY130 library cell xor2_1 A_to_X__B=0

option SCALE: Scale is set to 1e-06 for instance and model parameters
Doing analysis at TEMP = -24.701998 and TNOM = 27.000000

Using KLU as Direct Linear Solver
 Reference value :  2.44025e-08
 Reference value :  8.86929e-08
 Reference value :  1.52128e-07
 Reference value :  2.14828e-07
 Reference value :  2.78338e-07
No. of Data Rows : 68032

  Measurements for Transient Analysis

tplh                =  2.69701e-09 targ=  3.10572e-08 trig=  2.83602e-08
tphl                =  2.60593e-09 targ=  1.09687e-07 trig=  1.07081e-07
i_vdd_avg           =  -6.30767e-07 from=  1.00000e-08 to=  3.30003e-07
power_avg_uw        =  1.02462e+00


Total analysis time (seconds) = 1.34789

Total elapsed time (seconds) = 1.499 

Total DRAM available = 16384.000 MB.
DRAM currently available =  102.531 MB.
Maximum ngspice program size =   26.234 MB.
Current ngspice program size =   26.234 MB.

