
Note: Compatibility modes selected: hs a


Circuit: SKY130 library cell nor2_4 A_to_Y__B=0

option SCALE: Scale is set to 1e-06 for instance and model parameters
Doing analysis at TEMP = 77.318843 and TNOM = 27.000000

Using KLU as Direct Linear Solver
 Reference value :  9.79140e-09
 Reference value :  4.90206e-08
 Reference value :  8.97406e-08
 Reference value :  1.29484e-07
 Reference value :  1.71829e-07
 Reference value :  2.15621e-07
 Reference value :  2.55686e-07
 Reference value :  2.97859e-07
 Reference value :  3.39719e-07
No. of Data Rows : 68034

  Measurements for Transient Analysis

tphl                =  9.41629e-10 targ=  2.65657e-08 trig=  2.56240e-08
tplh                =  1.81835e-09 targ=  1.00690e-07 trig=  9.88721e-08
i_vdd_avg           =  -2.27488e-06 from=  1.00000e-08 to=  3.30004e-07
power_avg_uw        =  3.97083e+00


Total analysis time (seconds) = 2.09598

Total elapsed time (seconds) = 2.274 

Total DRAM available = 16384.000 MB.
DRAM currently available =   90.453 MB.
Maximum ngspice program size =   25.953 MB.
Current ngspice program size =   25.953 MB.

