
Note: Compatibility modes selected: hs a


Circuit: SKY130 library cell mux2_1 A0_to_X__A1=0,S=0

option SCALE: Scale is set to 1e-06 for instance and model parameters
Doing analysis at TEMP = 87.463247 and TNOM = 27.000000

Using KLU as Direct Linear Solver
 Reference value :  1.91864e-08
 Reference value :  7.61741e-08
 Reference value :  1.38331e-07
 Reference value :  1.94284e-07
 Reference value :  2.44194e-07
 Reference value :  2.98236e-07
No. of Data Rows : 68030

  Measurements for Transient Analysis

tplh                =  2.22465e-09 targ=  2.92929e-08 trig=  2.70683e-08
tphl                =  2.41704e-09 targ=  1.05622e-07 trig=  1.03205e-07
i_vdd_avg           =  -1.50682e-06 from=  1.00000e-08 to=  3.30001e-07
power_avg_uw        =  2.47412e+00


Total analysis time (seconds) = 1.55367

Total elapsed time (seconds) = 1.707 

Total DRAM available = 16384.000 MB.
DRAM currently available =  102.141 MB.
Maximum ngspice program size =   27.312 MB.
Current ngspice program size =   27.312 MB.

