
Note: Compatibility modes selected: hs a


Circuit: SKY130 library cell aoi21_1 A1_to_Y__A2=1,B1=0

option SCALE: Scale is set to 1e-06 for instance and model parameters
Doing analysis at TEMP = 113.882950 and TNOM = 27.000000

Using KLU as Direct Linear Solver
 Reference value :  4.38329e-08
 Reference value :  1.42113e-07
 Reference value :  2.44488e-07
No. of Data Rows : 68032

  Measurements for Transient Analysis

tphl                =  1.23971e-09 targ=  2.66374e-08 trig=  2.53977e-08
tplh                =  1.83876e-09 targ=  1.00032e-07 trig=  9.81931e-08
i_vdd_avg           =  -6.86297e-07 from=  1.00000e-08 to=  3.30003e-07
power_avg_uw        =  1.18763e+00


Total analysis time (seconds) = 0.839252

Total elapsed time (seconds) = 0.985 

Total DRAM available = 16384.000 MB.
DRAM currently available =  102.531 MB.
Maximum ngspice program size =   27.219 MB.
Current ngspice program size =   27.219 MB.

