
Note: Compatibility modes selected: hs a


Circuit: SKY130 library cell inv_1 A_to_Y

option SCALE: Scale is set to 1e-06 for instance and model parameters
Doing analysis at TEMP = 2.679088 and TNOM = 27.000000

Using KLU as Direct Linear Solver
 Reference value :  7.32908e-08
 Reference value :  2.93189e-07
No. of Data Rows : 68034

  Measurements for Transient Analysis

tphl                =  1.90414e-09 targ=  3.16358e-08 trig=  2.97317e-08
tplh                =  3.85988e-09 targ=  1.15055e-07 trig=  1.11195e-07
i_vdd_avg           =  -7.76329e-07 from=  1.00000e-08 to=  3.30004e-07
power_avg_uw        =  1.39647e+00


Total analysis time (seconds) = 0.437566

Total elapsed time (seconds) = 0.594 

Total DRAM available = 16384.000 MB.
DRAM currently available =  108.109 MB.
Maximum ngspice program size =   26.531 MB.
Current ngspice program size =   26.531 MB.

