
Note: Compatibility modes selected: hs a


Circuit: SKY130 library cell oai21_4 A1_to_Y__A2=0,B1=1

option SCALE: Scale is set to 1e-06 for instance and model parameters
Doing analysis at TEMP = -19.441078 and TNOM = 27.000000

Using KLU as Direct Linear Solver
 Reference value :  6.18640e-09
 Reference value :  3.40997e-08
 Reference value :  6.13897e-08
 Reference value :  9.13897e-08
 Reference value :  1.20757e-07
 Reference value :  1.47732e-07
 Reference value :  1.75322e-07
 Reference value :  2.03525e-07
 Reference value :  2.31075e-07
 Reference value :  2.61805e-07
 Reference value :  2.90202e-07
 Reference value :  3.17052e-07
No. of Data Rows : 68030

  Measurements for Transient Analysis

tphl                =  1.28303e-09 targ=  3.00591e-08 trig=  2.87761e-08
tplh                =  2.99781e-09 targ=  1.11326e-07 trig=  1.08328e-07
i_vdd_avg           =  -1.18189e-06 from=  1.00000e-08 to=  3.30002e-07
power_avg_uw        =  2.11280e+00


Total analysis time (seconds) = 3.08308

Total elapsed time (seconds) = 3.263 

Total DRAM available = 16384.000 MB.
DRAM currently available =   97.156 MB.
Maximum ngspice program size =   27.734 MB.
Current ngspice program size =   27.734 MB.

