
Note: Compatibility modes selected: hs a


Circuit: SKY130 library cell nor2_1 A_to_Y__B=0

option SCALE: Scale is set to 1e-06 for instance and model parameters
Doing analysis at TEMP = 58.320202 and TNOM = 27.000000

Using KLU as Direct Linear Solver
 Reference value :  3.97144e-08
 Reference value :  1.74576e-07
 Reference value :  3.05016e-07
No. of Data Rows : 68030

  Measurements for Transient Analysis

tphl                =  2.03258e-09 targ=  3.08660e-08 trig=  2.88334e-08
tplh                =  4.20782e-09 targ=  1.12708e-07 trig=  1.08500e-07
i_vdd_avg           =  -1.63715e-06 from=  1.00000e-08 to=  3.30001e-07
power_avg_uw        =  3.19387e+00


Total analysis time (seconds) = 0.659657

Total elapsed time (seconds) = 0.822 

Total DRAM available = 16384.000 MB.
DRAM currently available =  102.141 MB.
Maximum ngspice program size =   26.344 MB.
Current ngspice program size =   26.344 MB.

