
Note: Compatibility modes selected: hs a


Circuit: SKY130 library cell nor2_1 A_to_Y__B=0

option SCALE: Scale is set to 1e-06 for instance and model parameters
Doing analysis at TEMP = 28.342162 and TNOM = 27.000000

Using KLU as Direct Linear Solver
 Reference value :  4.80408e-08
 Reference value :  1.99311e-07
 Reference value :  3.38034e-07
No. of Data Rows : 68034

  Measurements for Transient Analysis

tphl                =  8.31993e-10 targ=  2.51012e-08 trig=  2.42692e-08
tplh                =  3.72501e-09 targ=  9.85325e-08 trig=  9.48075e-08
i_vdd_avg           =  -2.28151e-06 from=  1.00000e-08 to=  3.30004e-07
power_avg_uw        =  4.25408e+00


Total analysis time (seconds) = 0.600885

Total elapsed time (seconds) = 0.797 

Total DRAM available = 16384.000 MB.
DRAM currently available =  154.422 MB.
Maximum ngspice program size =   27.094 MB.
Current ngspice program size =   27.094 MB.

