
Note: Compatibility modes selected: hs a


Circuit: SKY130 library cell aoi21_4 A1_to_Y__A2=1,B1=0

option SCALE: Scale is set to 1e-06 for instance and model parameters
Doing analysis at TEMP = 68.454428 and TNOM = 27.000000

Using KLU as Direct Linear Solver
 Reference value :  8.82640e-09
 Reference value :  3.87809e-08
 Reference value :  6.90609e-08
 Reference value :  9.87043e-08
 Reference value :  1.29369e-07
 Reference value :  1.60154e-07
 Reference value :  1.91956e-07
 Reference value :  2.20426e-07
 Reference value :  2.48951e-07
 Reference value :  2.77434e-07
 Reference value :  3.06914e-07
 Reference value :  3.38474e-07
No. of Data Rows : 68034

  Measurements for Transient Analysis

tphl                =  4.94015e-10 targ=  2.49082e-08 trig=  2.44142e-08
tplh                =  9.19558e-10 targ=  9.61621e-08 trig=  9.52426e-08
i_vdd_avg           =  -2.13259e-06 from=  1.00000e-08 to=  3.30004e-07
power_avg_uw        =  4.07735e+00


Total analysis time (seconds) = 2.87358

Total elapsed time (seconds) = 3.044 

Total DRAM available = 16384.000 MB.
DRAM currently available =  108.859 MB.
Maximum ngspice program size =   26.703 MB.
Current ngspice program size =   26.703 MB.

