
Note: Compatibility modes selected: hs a


Circuit: SKY130 library cell aoi21_1 A1_to_Y__A2=1,B1=0

option SCALE: Scale is set to 1e-06 for instance and model parameters
Doing analysis at TEMP = 69.709931 and TNOM = 27.000000

Using KLU as Direct Linear Solver
 Reference value :  4.43327e-08
 Reference value :  1.43628e-07
 Reference value :  2.47753e-07
No. of Data Rows : 68032

  Measurements for Transient Analysis

tphl                =  2.74923e-09 targ=  3.18168e-08 trig=  2.90676e-08
tplh                =  4.36270e-09 targ=  1.13565e-07 trig=  1.09203e-07
i_vdd_avg           =  -1.19472e-06 from=  1.00000e-08 to=  3.30003e-07
power_avg_uw        =  2.14077e+00


Total analysis time (seconds) = 0.825458

Total elapsed time (seconds) = 0.977 

Total DRAM available = 16384.000 MB.
DRAM currently available =  136.625 MB.
Maximum ngspice program size =   24.875 MB.
Current ngspice program size =   24.875 MB.

