
Note: Compatibility modes selected: hs a


Circuit: SKY130 library cell aoi21_1 A1_to_Y__A2=1,B1=0

option SCALE: Scale is set to 1e-06 for instance and model parameters
Doing analysis at TEMP = 87.249399 and TNOM = 27.000000

Using KLU as Direct Linear Solver
 Reference value :  2.87834e-08
 Reference value :  1.21929e-07
 Reference value :  2.13178e-07
 Reference value :  3.07854e-07
No. of Data Rows : 68032

  Measurements for Transient Analysis

tphl                =  2.85196e-10 targ=  2.49406e-08 trig=  2.46554e-08
tplh                =  4.27813e-10 targ=  9.63941e-08 trig=  9.59663e-08
i_vdd_avg           =  -1.21562e-07 from=  1.00000e-08 to=  3.30004e-07
power_avg_uw        =  2.28367e-01


Total analysis time (seconds) = 0.930277

Total elapsed time (seconds) = 1.101 

Total DRAM available = 16384.000 MB.
DRAM currently available =   77.203 MB.
Maximum ngspice program size =   25.891 MB.
Current ngspice program size =   25.891 MB.

