
Note: Compatibility modes selected: hs a


Circuit: SKY130 library cell aoi21_1 A1_to_Y__A2=1,B1=0

option SCALE: Scale is set to 1e-06 for instance and model parameters
Doing analysis at TEMP = -17.461110 and TNOM = 27.000000

Using KLU as Direct Linear Solver
 Reference value :  3.49999e-08
 Reference value :  1.46897e-07
 Reference value :  2.48855e-07
No. of Data Rows : 68030

  Measurements for Transient Analysis

tphl                =  2.77166e-09 targ=  3.06504e-08 trig=  2.78787e-08
tplh                =  5.64828e-09 targ=  1.11284e-07 trig=  1.05636e-07
i_vdd_avg           =  -2.42197e-06 from=  1.00000e-08 to=  3.30002e-07
power_avg_uw        =  4.66402e+00


Total analysis time (seconds) = 0.829175

Total elapsed time (seconds) = 0.989 

Total DRAM available = 16384.000 MB.
DRAM currently available =   71.344 MB.
Maximum ngspice program size =   27.156 MB.
Current ngspice program size =   27.156 MB.

