
Note: Compatibility modes selected: hs a


Circuit: SKY130 library cell inv_4 A_to_Y

option SCALE: Scale is set to 1e-06 for instance and model parameters
Doing analysis at TEMP = 116.519660 and TNOM = 27.000000

Using KLU as Direct Linear Solver
 Reference value :  4.46872e-08
 Reference value :  1.32952e-07
 Reference value :  2.16737e-07
 Reference value :  3.01097e-07
No. of Data Rows : 68032

  Measurements for Transient Analysis

tphl                =  3.17287e-10 targ=  2.51346e-08 trig=  2.48173e-08
tplh                =  4.94913e-10 targ=  9.69469e-08 trig=  9.64520e-08
i_vdd_avg           =  -9.06694e-07 from=  1.00000e-08 to=  3.30002e-07
power_avg_uw        =  1.74812e+00


Total analysis time (seconds) = 1.02656

Total elapsed time (seconds) = 1.159 

Total DRAM available = 16384.000 MB.
DRAM currently available =   96.031 MB.
Maximum ngspice program size =   27.547 MB.
Current ngspice program size =   27.547 MB.

