
Note: Compatibility modes selected: hs a


Circuit: SKY130 library cell nand3_4 A_to_Y__B=1,C=1

option SCALE: Scale is set to 1e-06 for instance and model parameters
Doing analysis at TEMP = -5.725758 and TNOM = 27.000000

Using KLU as Direct Linear Solver
 Reference value :  7.08640e-09
 Reference value :  3.58099e-08
 Reference value :  6.50849e-08
 Reference value :  9.50099e-08
 Reference value :  1.23822e-07
 Reference value :  1.51822e-07
 Reference value :  1.82177e-07
 Reference value :  2.10155e-07
 Reference value :  2.41335e-07
 Reference value :  2.71142e-07
 Reference value :  2.99942e-07
 Reference value :  3.27402e-07
No. of Data Rows : 68030

  Measurements for Transient Analysis

tphl                =  1.11749e-09 targ=  2.69362e-08 trig=  2.58187e-08
tplh                =  1.53779e-09 targ=  1.00994e-07 trig=  9.94561e-08
i_vdd_avg           =  -2.28006e-06 from=  1.00000e-08 to=  3.30002e-07
power_avg_uw        =  4.28609e+00


Total analysis time (seconds) = 2.99117

Total elapsed time (seconds) = 3.173 

Total DRAM available = 16384.000 MB.
DRAM currently available =  113.328 MB.
Maximum ngspice program size =   26.594 MB.
Current ngspice program size =   26.594 MB.

