
Note: Compatibility modes selected: hs a


Circuit: SKY130 library cell nor2_1 A_to_Y__B=0

option SCALE: Scale is set to 1e-06 for instance and model parameters
Doing analysis at TEMP = 93.971369 and TNOM = 27.000000

Using KLU as Direct Linear Solver
 Reference value :  4.69851e-08
 Reference value :  1.91400e-07
 Reference value :  3.25023e-07
No. of Data Rows : 68034

  Measurements for Transient Analysis

tphl                =  1.58527e-09 targ=  2.82016e-08 trig=  2.66163e-08
tplh                =  3.03171e-09 targ=  1.04881e-07 trig=  1.01849e-07
i_vdd_avg           =  -1.18040e-06 from=  1.00000e-08 to=  3.30003e-07
power_avg_uw        =  2.13149e+00


Total analysis time (seconds) = 0.616593

Total elapsed time (seconds) = 0.782 

Total DRAM available = 16384.000 MB.
DRAM currently available =  103.734 MB.
Maximum ngspice program size =   25.531 MB.
Current ngspice program size =   25.531 MB.

