
Note: Compatibility modes selected: hs a


Circuit: SKY130 library cell aoi21_4 A1_to_Y__A2=1,B1=0

option SCALE: Scale is set to 1e-06 for instance and model parameters
Doing analysis at TEMP = 76.535967 and TNOM = 27.000000

Using KLU as Direct Linear Solver
 Reference value :  9.81640e-09
 Reference value :  4.09809e-08
 Reference value :  7.23859e-08
 Reference value :  1.02571e-07
 Reference value :  1.32664e-07
 Reference value :  1.61114e-07
 Reference value :  1.90538e-07
 Reference value :  2.18736e-07
 Reference value :  2.45766e-07
 Reference value :  2.73911e-07
 Reference value :  3.04619e-07
 Reference value :  3.35484e-07
No. of Data Rows : 68034

  Measurements for Transient Analysis

tphl                =  8.90090e-10 targ=  3.08718e-08 trig=  2.99817e-08
tplh                =  1.86227e-09 targ=  1.13807e-07 trig=  1.11945e-07
i_vdd_avg           =  -5.00334e-07 from=  1.00000e-08 to=  3.30004e-07
power_avg_uw        =  8.48345e-01


Total analysis time (seconds) = 2.95939

Total elapsed time (seconds) = 3.121 

Total DRAM available = 16384.000 MB.
DRAM currently available =   75.234 MB.
Maximum ngspice program size =   25.641 MB.
Current ngspice program size =   25.641 MB.

