
Note: No compatibility mode selected!


Circuit: INV seed characterization sample 4213019

Doing analysis at TEMP = 5.572620 and TNOM = 27.000000

Using SPARSE 1.3 as Direct Linear Solver

Initial Transient Solution
--------------------------

Node                                   Voltage
----                                   -------
vdd                                     1.6432
in                                           0
out                                     1.6432
vin#branch                                   0
vdd#branch                        -1.65432e-12

 Reference value :  6.21958e-08
No. of Data Rows : 60047

  Measurements for Transient Analysis

tphl                =  2.40664e-10 targ=  2.27137e-09 trig=  2.03071e-09
tplh                =  3.00324e-10 targ=  2.23924e-08 trig=  2.20921e-08
i_vdd_avg           =  -9.97842e-07 from=  5.00000e-09 to=  1.10002e-07
power_avg_uw        =  1.63965e+00


Total analysis time (seconds) = 0.341434

Total elapsed time (seconds) = 0.419 

Total DRAM available = 16384.000 MB.
DRAM currently available =  165.828 MB.
Maximum ngspice program size =   12.562 MB.
Current ngspice program size =   12.047 MB.

