
Note: No compatibility mode selected!


Circuit: XOR2 seed characterization sample 4213026

Doing analysis at TEMP = 94.658000 and TNOM = 27.000000

Using SPARSE 1.3 as Direct Linear Solver

Initial Transient Solution
--------------------------

Node                                   Voltage
----                                   -------
vdd                                    1.76029
in                                           0
b                                      1.76029
abar                                   1.76029
bbar                               7.17815e-09
out                                    1.76029
vb#branch                                    0
vin#branch                         3.59481e-12
vdd#branch                         -1.4002e-11

 Reference value :  2.49955e-08
 Reference value :  6.04073e-08
 Reference value :  9.62173e-08
No. of Data Rows : 60044

  Measurements for Transient Analysis

tphl                =  9.26224e-10 targ=  3.14036e-09 trig=  2.21414e-09
tplh                =  1.37683e-09 targ=  2.40192e-08 trig=  2.26424e-08
i_vdd_avg           =  -3.56633e-06 from=  5.00000e-09 to=  1.10002e-07
power_avg_uw        =  6.27778e+00


Total analysis time (seconds) = 0.810218

Total elapsed time (seconds) = 0.892 

Total DRAM available = 16384.000 MB.
DRAM currently available =  176.156 MB.
Maximum ngspice program size =   12.859 MB.
Current ngspice program size =   12.281 MB.

