
Note: No compatibility mode selected!


Circuit: INV seed characterization sample 4213032

Doing analysis at TEMP = 59.442200 and TNOM = 27.000000

Using SPARSE 1.3 as Direct Linear Solver

Initial Transient Solution
--------------------------

Node                                   Voltage
----                                   -------
vdd                                    1.93711
in                                           0
out                                    1.93711
vin#branch                                   0
vdd#branch                        -2.22091e-12

 Reference value :  7.29366e-08
No. of Data Rows : 60044

  Measurements for Transient Analysis

tphl                =  2.88193e-10 targ=  2.41610e-09 trig=  2.12791e-09
tplh                =  2.88601e-10 targ=  2.26723e-08 trig=  2.23837e-08
i_vdd_avg           =  -3.02409e-06 from=  5.00000e-09 to=  1.10001e-07
power_avg_uw        =  5.85800e+00


Total analysis time (seconds) = 0.292228

Total elapsed time (seconds) = 0.364 

Total DRAM available = 16384.000 MB.
DRAM currently available =  179.266 MB.
Maximum ngspice program size =   13.578 MB.
Current ngspice program size =   12.906 MB.

