
Note: No compatibility mode selected!


Circuit: XOR2 seed characterization sample 4213043

Doing analysis at TEMP = 83.922900 and TNOM = 27.000000

Using SPARSE 1.3 as Direct Linear Solver

Initial Transient Solution
--------------------------

Node                                   Voltage
----                                   -------
vdd                                    1.89637
in                                           0
b                                      1.89637
abar                                   1.89637
bbar                               2.94745e-09
out                                    1.89637
vb#branch                                    0
vin#branch                         4.84865e-12
vdd#branch                        -1.66421e-11

 Reference value :  2.31973e-08
 Reference value :  5.41572e-08
 Reference value :  8.37712e-08
 Reference value :  1.13335e-07
No. of Data Rows : 60044

  Measurements for Transient Analysis

tphl                =  4.16164e-10 targ=  2.57325e-09 trig=  2.15708e-09
tplh                =  4.62397e-10 targ=  2.29336e-08 trig=  2.24713e-08
i_vdd_avg           =  -4.24707e-06 from=  5.00000e-09 to=  1.10001e-07
power_avg_uw        =  8.05401e+00


Total analysis time (seconds) = 0.970173

Total elapsed time (seconds) = 1.048 

Total DRAM available = 16384.000 MB.
DRAM currently available =  181.109 MB.
Maximum ngspice program size =   12.609 MB.
Current ngspice program size =   11.891 MB.

