
Note: No compatibility mode selected!


Circuit: NAND2 seed characterization sample 4213005

Doing analysis at TEMP = 76.384300 and TNOM = 27.000000

Using SPARSE 1.3 as Direct Linear Solver

Initial Transient Solution
--------------------------

Node                                   Voltage
----                                   -------
vdd                                    1.66795
in                                           0
out                                    1.66795
nmid                                 0.0382147
vin#branch                                   0
vdd#branch                        -1.95451e-12

 Reference value :  4.57924e-08
 Reference value :  1.06250e-07
No. of Data Rows : 60047

  Measurements for Transient Analysis

tphl                =  5.33571e-10 targ=  2.74525e-09 trig=  2.21168e-09
tplh                =  2.62057e-10 targ=  2.28971e-08 trig=  2.26350e-08
i_vdd_avg           =  -2.47822e-06 from=  5.00000e-09 to=  1.10002e-07
power_avg_uw        =  4.13355e+00


Total analysis time (seconds) = 0.477988

Total elapsed time (seconds) = 0.550 

Total DRAM available = 16384.000 MB.
DRAM currently available =  181.922 MB.
Maximum ngspice program size =   12.781 MB.
Current ngspice program size =   12.781 MB.

