
Note: No compatibility mode selected!


Circuit: NAND2 seed characterization sample 4213045

Doing analysis at TEMP = -19.737300 and TNOM = 27.000000

Using SPARSE 1.3 as Direct Linear Solver

Initial Transient Solution
--------------------------

Node                                   Voltage
----                                   -------
vdd                                     1.8652
in                                           0
out                                     1.8652
nmid                               2.82254e-05
vin#branch                                   0
vdd#branch                        -1.87528e-12

 Reference value :  3.78391e-08
 Reference value :  9.11161e-08
No. of Data Rows : 60047

  Measurements for Transient Analysis

tphl                =  3.54424e-10 targ=  2.42496e-09 trig=  2.07053e-09
tplh                =  1.60323e-10 targ=  2.23719e-08 trig=  2.22116e-08
i_vdd_avg           =  -1.23600e-06 from=  5.00000e-09 to=  1.10001e-07
power_avg_uw        =  2.30539e+00


Total analysis time (seconds) = 0.53216

Total elapsed time (seconds) = 0.613 

Total DRAM available = 16384.000 MB.
DRAM currently available =  189.031 MB.
Maximum ngspice program size =   12.562 MB.
Current ngspice program size =   12.156 MB.

