
Note: No compatibility mode selected!


Circuit: XOR2 seed characterization sample 4213003

Doing analysis at TEMP = -3.219380 and TNOM = 27.000000

Using SPARSE 1.3 as Direct Linear Solver

Initial Transient Solution
--------------------------

Node                                   Voltage
----                                   -------
vdd                                    1.92393
in                                           0
b                                      1.92393
abar                                   1.92393
bbar                               5.72957e-09
out                                    1.92393
vb#branch                                    0
vin#branch                         1.93461e-12
vdd#branch                        -1.16049e-11

 Reference value :  2.44125e-08
 Reference value :  5.89838e-08
 Reference value :  9.49218e-08
No. of Data Rows : 60041

  Measurements for Transient Analysis

tphl                =  7.45091e-10 targ=  2.77747e-09 trig=  2.03238e-09
tplh                =  8.91112e-10 targ=  2.29882e-08 trig=  2.20971e-08
i_vdd_avg           =  -4.08163e-06 from=  5.00000e-09 to=  1.10001e-07
power_avg_uw        =  7.85276e+00


Total analysis time (seconds) = 0.823443

Total elapsed time (seconds) = 0.901 

Total DRAM available = 16384.000 MB.
DRAM currently available =  188.172 MB.
Maximum ngspice program size =   12.578 MB.
Current ngspice program size =   11.750 MB.

