
Note: No compatibility mode selected!


Circuit: NAND2 seed characterization sample 4213017

Doing analysis at TEMP = 58.148700 and TNOM = 27.000000

Using SPARSE 1.3 as Direct Linear Solver

Initial Transient Solution
--------------------------

Node                                   Voltage
----                                   -------
vdd                                    1.89171
in                                           0
out                                    1.89171
nmid                                 0.0193268
vin#branch                                   0
vdd#branch                        -1.96142e-12

 Reference value :  3.95668e-08
 Reference value :  9.31689e-08
No. of Data Rows : 60044

  Measurements for Transient Analysis

tphl                =  9.33623e-10 targ=  3.17557e-09 trig=  2.24195e-09
tplh                =  3.52702e-10 targ=  2.30785e-08 trig=  2.27258e-08
i_vdd_avg           =  -2.30846e-06 from=  5.00000e-09 to=  1.10001e-07
power_avg_uw        =  4.36694e+00


Total analysis time (seconds) = 0.524052

Total elapsed time (seconds) = 0.603 

Total DRAM available = 16384.000 MB.
DRAM currently available =  165.828 MB.
Maximum ngspice program size =   12.562 MB.
Current ngspice program size =   11.922 MB.

