
Note: No compatibility mode selected!


Circuit: NOR2 seed characterization sample 4213014

Doing analysis at TEMP = 53.816100 and TNOM = 27.000000

Using SPARSE 1.3 as Direct Linear Solver

Initial Transient Solution
--------------------------

Node                                   Voltage
----                                   -------
vdd                                    1.73284
in                                           0
out                                    1.73284
pmid                                   1.73284
vin#branch                                   0
vdd#branch                        -3.97461e-12

 Reference value :  3.84698e-08
 Reference value :  9.03864e-08
No. of Data Rows : 60047

  Measurements for Transient Analysis

tphl                =  2.54264e-10 targ=  2.43296e-09 trig=  2.17870e-09
tplh                =  1.16363e-09 targ=  2.36997e-08 trig=  2.25361e-08
i_vdd_avg           =  -4.82106e-06 from=  5.00000e-09 to=  1.10002e-07
power_avg_uw        =  8.35413e+00


Total analysis time (seconds) = 0.556982

Total elapsed time (seconds) = 0.636 

Total DRAM available = 16384.000 MB.
DRAM currently available =  165.828 MB.
Maximum ngspice program size =   12.609 MB.
Current ngspice program size =   11.828 MB.

