
Note: No compatibility mode selected!


Circuit: XOR2 seed characterization sample 4213018

Doing analysis at TEMP = 42.168700 and TNOM = 27.000000

Using SPARSE 1.3 as Direct Linear Solver

Initial Transient Solution
--------------------------

Node                                   Voltage
----                                   -------
vdd                                    1.78988
in                                           0
b                                      1.78988
abar                                   1.78988
bbar                               5.13256e-09
out                                    1.78988
vb#branch                                    0
vin#branch                         1.85526e-12
vdd#branch                        -1.08988e-11

 Reference value :  2.23061e-08
 Reference value :  5.29101e-08
 Reference value :  8.75281e-08
No. of Data Rows : 60047

  Measurements for Transient Analysis

tphl                =  1.14721e-09 targ=  3.39174e-09 trig=  2.24453e-09
tplh                =  1.88090e-09 targ=  2.46145e-08 trig=  2.27336e-08
i_vdd_avg           =  -5.58229e-06 from=  5.00000e-09 to=  1.10001e-07
power_avg_uw        =  9.99163e+00


Total analysis time (seconds) = 0.879282

Total elapsed time (seconds) = 0.959 

Total DRAM available = 16384.000 MB.
DRAM currently available =  168.594 MB.
Maximum ngspice program size =   12.578 MB.
Current ngspice program size =   11.844 MB.

