
Note: No compatibility mode selected!


Circuit: NOR2 seed characterization sample 4213012

Doing analysis at TEMP = 16.703600 and TNOM = 27.000000

Using SPARSE 1.3 as Direct Linear Solver

Initial Transient Solution
--------------------------

Node                                   Voltage
----                                   -------
vdd                                    1.76392
in                                           0
out                                    1.76392
pmid                                   1.76392
vin#branch                                   0
vdd#branch                        -3.60188e-12

 Reference value :  4.72671e-08
 Reference value :  1.08145e-07
No. of Data Rows : 60044

  Measurements for Transient Analysis

tphl                =  7.20225e-11 targ=  2.16110e-09 trig=  2.08907e-09
tplh                =  1.78305e-10 targ=  2.24455e-08 trig=  2.22672e-08
i_vdd_avg           =  -1.84673e-06 from=  5.00000e-09 to=  1.10001e-07
power_avg_uw        =  3.25748e+00


Total analysis time (seconds) = 0.477109

Total elapsed time (seconds) = 0.545 

Total DRAM available = 16384.000 MB.
DRAM currently available =  200.734 MB.
Maximum ngspice program size =   12.562 MB.
Current ngspice program size =   11.625 MB.

