
Note: No compatibility mode selected!


Circuit: NOR2 seed characterization sample 4213047

Doing analysis at TEMP = 75.805900 and TNOM = 27.000000

Using SPARSE 1.3 as Direct Linear Solver

Initial Transient Solution
--------------------------

Node                                   Voltage
----                                   -------
vdd                                    1.79958
in                                           0
out                                    1.79958
pmid                                   1.79958
vin#branch                                   0
vdd#branch                        -5.39539e-12

 Reference value :  3.70020e-08
 Reference value :  9.00115e-08
No. of Data Rows : 60041

  Measurements for Transient Analysis

tphl                =  2.16989e-10 targ=  2.36425e-09 trig=  2.14726e-09
tplh                =  7.18474e-10 targ=  2.31602e-08 trig=  2.24418e-08
i_vdd_avg           =  -3.56735e-06 from=  5.00000e-09 to=  1.10000e-07
power_avg_uw        =  6.41972e+00


Total analysis time (seconds) = 0.536538

Total elapsed time (seconds) = 0.619 

Total DRAM available = 16384.000 MB.
DRAM currently available =  189.031 MB.
Maximum ngspice program size =   12.562 MB.
Current ngspice program size =   11.875 MB.

