
Note: No compatibility mode selected!


Circuit: XOR2 seed characterization sample 4213024

Doing analysis at TEMP = 45.340600 and TNOM = 27.000000

Using SPARSE 1.3 as Direct Linear Solver

Initial Transient Solution
--------------------------

Node                                   Voltage
----                                   -------
vdd                                    1.78367
in                                           0
b                                      1.78367
abar                                   1.78367
bbar                               1.55242e-09
out                                    1.78367
vb#branch                                    0
vin#branch                          2.0895e-12
vdd#branch                        -1.12876e-11

 Reference value :  2.36553e-08
 Reference value :  5.78702e-08
 Reference value :  9.54462e-08
No. of Data Rows : 60047

  Measurements for Transient Analysis

tphl                =  4.27272e-10 targ=  2.66585e-09 trig=  2.23858e-09
tplh                =  6.60283e-10 targ=  2.33760e-08 trig=  2.27157e-08
i_vdd_avg           =  -5.36733e-06 from=  5.00000e-09 to=  1.10001e-07
power_avg_uw        =  9.57355e+00


Total analysis time (seconds) = 0.810616

Total elapsed time (seconds) = 0.889 

Total DRAM available = 16384.000 MB.
DRAM currently available =  176.484 MB.
Maximum ngspice program size =   12.797 MB.
Current ngspice program size =   12.578 MB.

