
Note: No compatibility mode selected!


Circuit: NOR2 seed characterization sample 4213030

Doing analysis at TEMP = 71.127100 and TNOM = 27.000000

Using SPARSE 1.3 as Direct Linear Solver

Initial Transient Solution
--------------------------

Node                                   Voltage
----                                   -------
vdd                                    1.96264
in                                           0
out                                    1.96264
pmid                                   1.96264
vin#branch                                   0
vdd#branch                        -5.63505e-12

 Reference value :  4.64622e-08
 Reference value :  1.09097e-07
No. of Data Rows : 60047

  Measurements for Transient Analysis

tphl                =  1.14623e-10 targ=  2.19522e-09 trig=  2.08059e-09
tplh                =  5.46130e-10 targ=  2.27879e-08 trig=  2.22418e-08
i_vdd_avg           =  -2.58463e-06 from=  5.00000e-09 to=  1.10001e-07
power_avg_uw        =  5.07270e+00


Total analysis time (seconds) = 0.462453

Total elapsed time (seconds) = 0.533 

Total DRAM available = 16384.000 MB.
DRAM currently available =  179.266 MB.
Maximum ngspice program size =   12.562 MB.
Current ngspice program size =   11.656 MB.

