
Note: No compatibility mode selected!


Circuit: GF180MCU library cell nor2_1 A1_to_ZN__A2=0

Doing analysis at TEMP = -40.000000 and TNOM = 27.000000

Using SPARSE 1.3 as Direct Linear Solver

Initial Transient Solution
--------------------------

Node                                   Voltage
----                                   -------
vdd                                       1.98
a1                                           0
a2                                           0
zn                                        1.98
xu1.net_0                                 1.98
vfix_a2#branch                               0
vin#branch                                   0
vdd#branch                        -3.98583e-12

 Reference value :  1.08534e-07
 Reference value :  2.61828e-07
No. of Data Rows : 68034

  Measurements for Transient Analysis

tphl                =  4.31352e-10 targ=  2.49479e-08 trig=  2.45165e-08
tplh                =  9.01036e-10 targ=  9.64505e-08 trig=  9.55495e-08
i_vdd_avg           =  -2.55303e-07 from=  1.00000e-08 to=  3.30003e-07
power_avg_uw        =  5.05499e-01


Total analysis time (seconds) = 0.9696

Total elapsed time (seconds) = 1.033 

Total DRAM available = 16384.000 MB.
DRAM currently available =   84.016 MB.
Maximum ngspice program size =   16.594 MB.
Current ngspice program size =   16.594 MB.

