
Note: No compatibility mode selected!


Circuit: GF180MCU library cell nand2_1 A1_to_ZN__A2=1

Doing analysis at TEMP = -40.000000 and TNOM = 27.000000

Using SPARSE 1.3 as Direct Linear Solver

Initial Transient Solution
--------------------------

Node                                   Voltage
----                                   -------
vdd                                       1.98
a1                                           0
a2                                        1.98
xu1.net_0                           7.8808e-12
zn                                        1.98
vfix_a2#branch                               0
vin#branch                                   0
vdd#branch                        -1.99251e-12

 Reference value :  1.19024e-07
 Reference value :  2.75833e-07
No. of Data Rows : 68034

  Measurements for Transient Analysis

tphl                =  6.54292e-10 targ=  2.51708e-08 trig=  2.45165e-08
tplh                =  9.01041e-10 targ=  9.64505e-08 trig=  9.55495e-08
i_vdd_avg           =  -4.37551e-07 from=  1.00000e-08 to=  3.30003e-07
power_avg_uw        =  8.66351e-01


Total analysis time (seconds) = 1.23056

Total elapsed time (seconds) = 1.285 

Total DRAM available = 16384.000 MB.
DRAM currently available =  124.406 MB.
Maximum ngspice program size =   13.672 MB.
Current ngspice program size =   13.672 MB.

