
Note: No compatibility mode selected!


Circuit: GF180MCU library cell nand3_1 A1_to_ZN__A2=1,A3=1

Doing analysis at TEMP = 125.000000 and TNOM = 27.000000

Using SPARSE 1.3 as Direct Linear Solver

Initial Transient Solution
--------------------------

Node                                   Voltage
----                                   -------
vdd                                       1.62
a1                                           0
a2                                        1.62
a3                                        1.62
xu1.net_1                          1.46007e-08
xu1.net_0                          2.92015e-08
zn                                        1.62
vfix_a3#branch                               0
vfix_a2#branch                               0
vin#branch                                   0
vdd#branch                          -2.854e-12

 Reference value :  6.46925e-08
 Reference value :  1.64858e-07
 Reference value :  2.66492e-07
No. of Data Rows : 68032

  Measurements for Transient Analysis

tphl                =  1.46588e-09 targ=  3.79659e-08 trig=  3.65000e-08
tplh                =  4.59168e-09 targ=  1.36092e-07 trig=  1.31500e-07
i_vdd_avg           =  -3.24926e-08 from=  1.00000e-08 to=  3.30002e-07
power_avg_uw        =  5.26381e-02


Total analysis time (seconds) = 1.91415

Total elapsed time (seconds) = 1.984 

Total DRAM available = 16384.000 MB.
DRAM currently available =  106.297 MB.
Maximum ngspice program size =   14.000 MB.
Current ngspice program size =   14.000 MB.

