
Note: No compatibility mode selected!


Circuit: GF180MCU library cell nor2_1 A1_to_ZN__A2=0

Doing analysis at TEMP = -40.000000 and TNOM = 27.000000

Using SPARSE 1.3 as Direct Linear Solver

Initial Transient Solution
--------------------------

Node                                   Voltage
----                                   -------
vdd                                       1.98
a1                                           0
a2                                           0
zn                                        1.98
xu1.net_0                                 1.98
vfix_a2#branch                               0
vin#branch                                   0
vdd#branch                        -3.98583e-12

 Reference value :  1.40148e-07
 Reference value :  2.85392e-07
No. of Data Rows : 68032

  Measurements for Transient Analysis

tphl                =  2.61711e-09 targ=  3.00171e-08 trig=  2.74000e-08
tplh                =  5.50506e-09 targ=  1.09705e-07 trig=  1.04200e-07
i_vdd_avg           =  -1.51999e-06 from=  1.00000e-08 to=  3.30002e-07
power_avg_uw        =  3.00958e+00


Total analysis time (seconds) = 0.88463

Total elapsed time (seconds) = 0.939 

Total DRAM available = 16384.000 MB.
DRAM currently available =  119.953 MB.
Maximum ngspice program size =   12.875 MB.
Current ngspice program size =   12.688 MB.

