
Note: No compatibility mode selected!


Circuit: GF180MCU library cell nor2_4 A1_to_ZN__A2=0

Doing analysis at TEMP = 25.000000 and TNOM = 27.000000

Using SPARSE 1.3 as Direct Linear Solver

Initial Transient Solution
--------------------------

Node                                   Voltage
----                                   -------
vdd                                        1.8
a1                                           0
a2                                           0
zn                                         1.8
xu1.net_0_0                                1.8
xu1.net_0_1                                1.8
xu1.net_0_2                                1.8
xu1.net_0_3                                1.8
vfix_a2#branch                               0
vin#branch                                   0
vdd#branch                        -1.47735e-11

 Reference value :  3.70025e-08
 Reference value :  8.46275e-08
 Reference value :  1.34033e-07
 Reference value :  1.86293e-07
 Reference value :  2.33158e-07
 Reference value :  2.83017e-07
 Reference value :  3.30637e-07
No. of Data Rows : 68032

  Measurements for Transient Analysis

tphl                =  5.77326e-11 targ=  2.40677e-08 trig=  2.40100e-08
tplh                =  1.67928e-10 targ=  9.41979e-08 trig=  9.40300e-08
i_vdd_avg           =  -9.31974e-08 from=  1.00000e-08 to=  3.30002e-07
power_avg_uw        =  1.67755e-01


Total analysis time (seconds) = 3.96755

Total elapsed time (seconds) = 4.030 

Total DRAM available = 16384.000 MB.
DRAM currently available =   90.297 MB.
Maximum ngspice program size =   14.141 MB.
Current ngspice program size =   14.141 MB.

