
Note: No compatibility mode selected!


Circuit: GF180MCU library cell inv_1 I_to_ZN

Doing analysis at TEMP = 25.000000 and TNOM = 27.000000

Using SPARSE 1.3 as Direct Linear Solver

Initial Transient Solution
--------------------------

Node                                   Voltage
----                                   -------
vdd                                        1.8
i                                            0
zn                                         1.8
vin#branch                                   0
vdd#branch                        -1.84302e-12

 Reference value :  2.00123e-07
No. of Data Rows : 68032

  Measurements for Transient Analysis

tphl                =  2.06434e-09 targ=  3.20643e-08 trig=  3.00000e-08
tplh                =  4.32795e-09 targ=  1.16328e-07 trig=  1.12000e-07
i_vdd_avg           =  -3.76250e-07 from=  1.00000e-08 to=  3.30002e-07
power_avg_uw        =  6.77250e-01


Total analysis time (seconds) = 0.674801

Total elapsed time (seconds) = 0.742 

Total DRAM available = 16384.000 MB.
DRAM currently available =  129.797 MB.
Maximum ngspice program size =   16.125 MB.
Current ngspice program size =   16.125 MB.

