
Note: No compatibility mode selected!


Circuit: GF180MCU library cell inv_4 I_to_ZN

Doing analysis at TEMP = -40.000000 and TNOM = 27.000000

Using SPARSE 1.3 as Direct Linear Solver

Initial Transient Solution
--------------------------

Node                                   Voltage
----                                   -------
vdd                                       1.98
i                                            0
zn                                        1.98
vin#branch                                   0
vdd#branch                        -7.97006e-12

 Reference value :  6.05775e-08
 Reference value :  1.46888e-07
 Reference value :  2.43143e-07
No. of Data Rows : 68032

  Measurements for Transient Analysis

tphl                =  8.81259e-10 targ=  2.82813e-08 trig=  2.74000e-08
tplh                =  2.18161e-09 targ=  1.06382e-07 trig=  1.04200e-07
i_vdd_avg           =  -1.98255e-06 from=  1.00000e-08 to=  3.30002e-07
power_avg_uw        =  3.92546e+00


Total analysis time (seconds) = 2.1896

Total elapsed time (seconds) = 2.262 

Total DRAM available = 16384.000 MB.
DRAM currently available =  110.156 MB.
Maximum ngspice program size =   17.328 MB.
Current ngspice program size =   17.328 MB.

