
Note: No compatibility mode selected!


Circuit: GF180MCU library cell mux2_1 I0_to_Z__I1=0,S=0

Doing analysis at TEMP = 125.000000 and TNOM = 27.000000

Using SPARSE 1.3 as Direct Linear Solver

Initial Transient Solution
--------------------------

Node                                   Voltage
----                                   -------
vdd                                       1.62
i0                                           0
i1                                           0
s                                            0
xu1.int04                                 1.62
z                                  2.06213e-08
xu1.net_1                            0.0406046
xu1.net_3                              1.17899
xu1.sel1_n                                1.62
xu1.net_0                                 1.62
xu1.net_2                                 1.62
vfix_s#branch                                0
vfix_i1#branch                               0
vin#branch                                   0
vdd#branch                        -2.09465e-11

 Reference value :  4.23825e-08
 Reference value :  1.00873e-07
 Reference value :  1.58463e-07
 Reference value :  2.14018e-07
 Reference value :  2.71012e-07
 Reference value :  3.31627e-07
No. of Data Rows : 68032

  Measurements for Transient Analysis

tplh                =  4.80310e-09 targ=  4.13031e-08 trig=  3.65000e-08
tphl                =  8.94381e-09 targ=  1.40444e-07 trig=  1.31500e-07
i_vdd_avg           =  -3.66681e-07 from=  1.00000e-08 to=  3.30002e-07
power_avg_uw        =  5.94023e-01


Total analysis time (seconds) = 3.28037

Total elapsed time (seconds) = 3.351 

Total DRAM available = 16384.000 MB.
DRAM currently available =  135.016 MB.
Maximum ngspice program size =   16.859 MB.
Current ngspice program size =   16.859 MB.

