
Note: No compatibility mode selected!


Circuit: GF180MCU library cell mux2_4 I0_to_Z__I1=0,S=0

Doing analysis at TEMP = -40.000000 and TNOM = 27.000000

Using SPARSE 1.3 as Direct Linear Solver

Initial Transient Solution
--------------------------

Node                                   Voltage
----                                   -------
vdd                                       1.98
i0                                           0
i1                                           0
s                                            0
xu1.int04                                 1.98
z                                  6.60779e-09
xu1.net_1                           0.00081994
xu1.net_3                              1.35708
xu1.sel1_n                                1.98
xu1.net_0                                 1.98
xu1.net_2                                 1.98
vfix_s#branch                                0
vfix_i1#branch                               0
vin#branch                                   0
vdd#branch                         -1.7145e-11

 Reference value :  2.91405e-08
 Reference value :  6.89105e-08
 Reference value :  1.07219e-07
 Reference value :  1.46014e-07
 Reference value :  1.84368e-07
 Reference value :  2.24876e-07
 Reference value :  2.65718e-07
 Reference value :  3.06473e-07
No. of Data Rows : 68034

  Measurements for Transient Analysis

tplh                =  1.10534e-09 targ=  2.56218e-08 trig=  2.45165e-08
tphl                =  1.23851e-09 targ=  9.67880e-08 trig=  9.55495e-08
i_vdd_avg           =  -2.05729e-06 from=  1.00000e-08 to=  3.30003e-07
power_avg_uw        =  4.07343e+00


Total analysis time (seconds) = 4.7126

Total elapsed time (seconds) = 4.780 

Total DRAM available = 16384.000 MB.
DRAM currently available =  104.453 MB.
Maximum ngspice program size =   14.750 MB.
Current ngspice program size =   14.750 MB.

