
Note: No compatibility mode selected!


Circuit: GF180MCU library cell aoi21_4 A1_to_ZN__A2=1,B=0

Doing analysis at TEMP = 125.000000 and TNOM = 27.000000

Using SPARSE 1.3 as Direct Linear Solver

Initial Transient Solution
--------------------------

Node                                   Voltage
----                                   -------
vdd                                       1.62
a1                                           0
a2                                        1.62
b                                            0
xu1.net_0_0                        1.46007e-08
zn                                        1.62
xu1.net_0_1                        1.46007e-08
xu1.net_0_2                        1.46007e-08
xu1.net_0_3                        1.46007e-08
xu1.net_1                                 1.62
vfix_b#branch                                0
vfix_a2#branch                               0
vin#branch                                   0
vdd#branch                        -2.35592e-11

 Reference value :  2.20964e-08
 Reference value :  5.22375e-08
 Reference value :  8.24825e-08
 Reference value :  1.14218e-07
 Reference value :  1.44538e-07
 Reference value :  1.75003e-07
 Reference value :  2.04983e-07
 Reference value :  2.32993e-07
 Reference value :  2.60872e-07
 Reference value :  2.92557e-07
 Reference value :  3.21597e-07
No. of Data Rows : 68032

  Measurements for Transient Analysis

tphl                =  1.10672e-08 targ=  4.75672e-08 trig=  3.65000e-08
tplh                =  2.19194e-08 targ=  1.53419e-07 trig=  1.31500e-07
i_vdd_avg           =  -3.42153e-06 from=  1.00000e-08 to=  3.30002e-07
power_avg_uw        =  5.54287e+00


Total analysis time (seconds) = 6.48092

Total elapsed time (seconds) = 6.551 

Total DRAM available = 16384.000 MB.
DRAM currently available =  120.109 MB.
Maximum ngspice program size =   14.719 MB.
Current ngspice program size =   14.719 MB.

