
Note: No compatibility mode selected!


Circuit: GF180MCU library cell oai21_1 A1_to_ZN__A2=0,B=1

Doing analysis at TEMP = -40.000000 and TNOM = 27.000000

Using SPARSE 1.3 as Direct Linear Solver

Initial Transient Solution
--------------------------

Node                                   Voltage
----                                   -------
vdd                                       1.98
a1                                           0
a2                                           0
b                                         1.98
zn                                        1.98
xu1.net_0                          1.57615e-11
xu1.net_1                                 1.98
vfix_b#branch                                0
vfix_a2#branch                               0
vin#branch                                   0
vdd#branch                        -3.98503e-12

 Reference value :  7.45855e-08
 Reference value :  1.75299e-07
 Reference value :  2.78123e-07
No. of Data Rows : 68034

  Measurements for Transient Analysis

tphl                =  1.15145e-10 targ=  2.46316e-08 trig=  2.45165e-08
tplh                =  3.22956e-10 targ=  9.58725e-08 trig=  9.55495e-08
i_vdd_avg           =  -4.39528e-08 from=  1.00000e-08 to=  3.30003e-07
power_avg_uw        =  8.70266e-02


Total analysis time (seconds) = 1.86943

Total elapsed time (seconds) = 1.936 

Total DRAM available = 16384.000 MB.
DRAM currently available =  119.719 MB.
Maximum ngspice program size =   15.719 MB.
Current ngspice program size =   15.719 MB.

