
Note: No compatibility mode selected!


Circuit: GF180MCU library cell oai21_1 A1_to_ZN__A2=0,B=1

Doing analysis at TEMP = 25.000000 and TNOM = 27.000000

Using SPARSE 1.3 as Direct Linear Solver

Initial Transient Solution
--------------------------

Node                                   Voltage
----                                   -------
vdd                                        1.8
a1                                           0
a2                                           0
b                                          1.8
zn                                         1.8
xu1.net_0                          3.73248e-10
xu1.net_1                                  1.8
vfix_b#branch                                0
vfix_a2#branch                               0
vin#branch                                   0
vdd#branch                        -3.68605e-12

 Reference value :  8.48235e-08
 Reference value :  1.89644e-07
 Reference value :  2.99054e-07
No. of Data Rows : 68032

  Measurements for Transient Analysis

tphl                =  3.06416e-10 targ=  2.52119e-08 trig=  2.49055e-08
tplh                =  6.82824e-10 targ=  9.73993e-08 trig=  9.67165e-08
i_vdd_avg           =  -3.57864e-08 from=  1.00000e-08 to=  3.30004e-07
power_avg_uw        =  6.44154e-02


Total analysis time (seconds) = 1.6389

Total elapsed time (seconds) = 1.703 

Total DRAM available = 16384.000 MB.
DRAM currently available =  103.250 MB.
Maximum ngspice program size =   15.562 MB.
Current ngspice program size =   15.562 MB.

