
Note: No compatibility mode selected!


Circuit: GF180MCU library cell xor2_4 A1_to_Z__A2=0

Doing analysis at TEMP = 125.000000 and TNOM = 27.000000

Using SPARSE 1.3 as Direct Linear Solver

Initial Transient Solution
--------------------------

Node                                   Voltage
----                                   -------
vdd                                       1.62
a1                                           0
a2                                           0
xu1.net_2                            0.0406046
xu1.i                                     1.62
xu1.net_0                          2.92015e-08
xu1.z_neg                                 1.62
z                                  2.06213e-08
xu1.net_1                                 1.62
vfix_a2#branch                               0
vin#branch                                   0
vdd#branch                        -1.60386e-11

 Reference value :  3.10725e-08
 Reference value :  7.19575e-08
 Reference value :  1.12598e-07
 Reference value :  1.51958e-07
 Reference value :  1.93878e-07
 Reference value :  2.35138e-07
 Reference value :  2.74327e-07
 Reference value :  3.11722e-07
No. of Data Rows : 68032

  Measurements for Transient Analysis

tplh                =  4.83862e-09 targ=  4.13386e-08 trig=  3.65000e-08
tphl                =  9.48269e-09 targ=  1.40983e-07 trig=  1.31500e-07
i_vdd_avg           =  -1.97225e-07 from=  1.00000e-08 to=  3.30002e-07
power_avg_uw        =  3.19505e-01


Total analysis time (seconds) = 4.07891

Total elapsed time (seconds) = 4.140 

Total DRAM available = 16384.000 MB.
DRAM currently available =  170.312 MB.
Maximum ngspice program size =   13.469 MB.
Current ngspice program size =   13.469 MB.

