
Note: No compatibility mode selected!


Circuit: GF180MCU library cell nand3_4 A1_to_ZN__A2=1,A3=1

Doing analysis at TEMP = 25.000000 and TNOM = 27.000000

Using SPARSE 1.3 as Direct Linear Solver

Initial Transient Solution
--------------------------

Node                                   Voltage
----                                   -------
vdd                                        1.8
a1                                           0
a2                                         1.8
a3                                         1.8
xu1.net_1_3                        1.86624e-10
xu1.net_0                          3.73248e-10
xu1.net_1_2                        1.86624e-10
xu1.net_1_1                        1.86624e-10
xu1.net_1_0                        1.86624e-10
xu1.net_0_0                        3.73248e-10
zn                                         1.8
vfix_a3#branch                               0
vfix_a2#branch                               0
vin#branch                                   0
vdd#branch                         -7.3721e-12

 Reference value :  2.31514e-08
 Reference value :  5.42685e-08
 Reference value :  8.46935e-08
 Reference value :  1.14115e-07
 Reference value :  1.44715e-07
 Reference value :  1.76015e-07
 Reference value :  2.06099e-07
 Reference value :  2.34784e-07
 Reference value :  2.63754e-07
 Reference value :  2.93074e-07
 Reference value :  3.23474e-07
No. of Data Rows : 68032

  Measurements for Transient Analysis

tphl                =  2.75220e-10 targ=  2.51807e-08 trig=  2.49055e-08
tplh                =  5.05049e-10 targ=  9.72215e-08 trig=  9.67165e-08
i_vdd_avg           =  -9.77823e-08 from=  1.00000e-08 to=  3.30004e-07
power_avg_uw        =  1.76008e-01


Total analysis time (seconds) = 6.29466

Total elapsed time (seconds) = 6.358 

Total DRAM available = 16384.000 MB.
DRAM currently available =  120.297 MB.
Maximum ngspice program size =   14.312 MB.
Current ngspice program size =   14.297 MB.

