
Note: No compatibility mode selected!


Circuit: GF180MCU library cell aoi21_4 A1_to_ZN__A2=1,B=0

Doing analysis at TEMP = 125.000000 and TNOM = 27.000000

Using SPARSE 1.3 as Direct Linear Solver

Initial Transient Solution
--------------------------

Node                                   Voltage
----                                   -------
vdd                                       1.62
a1                                           0
a2                                        1.62
b                                            0
xu1.net_0_0                        1.46007e-08
zn                                        1.62
xu1.net_0_1                        1.46007e-08
xu1.net_0_2                        1.46007e-08
xu1.net_0_3                        1.46007e-08
xu1.net_1                                 1.62
vfix_b#branch                                0
vfix_a2#branch                               0
vin#branch                                   0
vdd#branch                        -2.35592e-11

 Reference value :  2.26564e-08
 Reference value :  5.41175e-08
 Reference value :  8.66075e-08
 Reference value :  1.18393e-07
 Reference value :  1.51078e-07
 Reference value :  1.83393e-07
 Reference value :  2.13738e-07
 Reference value :  2.44003e-07
 Reference value :  2.75127e-07
 Reference value :  3.05752e-07
 Reference value :  3.36857e-07
No. of Data Rows : 68032

  Measurements for Transient Analysis

tphl                =  9.19796e-10 targ=  2.49298e-08 trig=  2.40100e-08
tplh                =  2.71739e-09 targ=  9.67474e-08 trig=  9.40300e-08
i_vdd_avg           =  -6.39549e-07 from=  1.00000e-08 to=  3.30002e-07
power_avg_uw        =  1.03607e+00


Total analysis time (seconds) = 5.98382

Total elapsed time (seconds) = 6.049 

Total DRAM available = 16384.000 MB.
DRAM currently available =   93.188 MB.
Maximum ngspice program size =   15.016 MB.
Current ngspice program size =   15.016 MB.

