
Note: No compatibility mode selected!


Circuit: GF180MCU library cell nand3_1 A1_to_ZN__A2=1,A3=1

Doing analysis at TEMP = 125.000000 and TNOM = 27.000000

Using SPARSE 1.3 as Direct Linear Solver

Initial Transient Solution
--------------------------

Node                                   Voltage
----                                   -------
vdd                                       1.62
a1                                           0
a2                                        1.62
a3                                        1.62
xu1.net_1                          1.46007e-08
xu1.net_0                          2.92015e-08
zn                                        1.62
vfix_a3#branch                               0
vfix_a2#branch                               0
vin#branch                                   0
vdd#branch                          -2.854e-12

 Reference value :  7.86775e-08
 Reference value :  1.78433e-07
 Reference value :  2.83512e-07
No. of Data Rows : 68032

  Measurements for Transient Analysis

tphl                =  2.17315e-09 targ=  2.61832e-08 trig=  2.40100e-08
tplh                =  2.49933e-09 targ=  9.65293e-08 trig=  9.40300e-08
i_vdd_avg           =  -2.62202e-07 from=  1.00000e-08 to=  3.30002e-07
power_avg_uw        =  4.24767e-01


Total analysis time (seconds) = 1.80878

Total elapsed time (seconds) = 1.870 

Total DRAM available = 16384.000 MB.
DRAM currently available =  144.812 MB.
Maximum ngspice program size =   12.875 MB.
Current ngspice program size =   12.828 MB.

