
Note: No compatibility mode selected!


Circuit: GF180MCU library cell xor2_4 A1_to_Z__A2=0

Doing analysis at TEMP = 125.000000 and TNOM = 27.000000

Using SPARSE 1.3 as Direct Linear Solver

Initial Transient Solution
--------------------------

Node                                   Voltage
----                                   -------
vdd                                       1.62
a1                                           0
a2                                           0
xu1.net_2                            0.0406046
xu1.i                                     1.62
xu1.net_0                          2.92015e-08
xu1.z_neg                                 1.62
z                                  2.06213e-08
xu1.net_1                                 1.62
vfix_a2#branch                               0
vin#branch                                   0
vdd#branch                        -1.60386e-11

 Reference value :  3.20265e-08
 Reference value :  7.16765e-08
 Reference value :  1.14421e-07
 Reference value :  1.55116e-07
 Reference value :  1.97347e-07
 Reference value :  2.40842e-07
 Reference value :  2.82550e-07
 Reference value :  3.21025e-07
No. of Data Rows : 68032

  Measurements for Transient Analysis

tplh                =  4.58255e-09 targ=  3.04595e-08 trig=  2.58770e-08
tphl                =  5.63664e-09 targ=  1.05268e-07 trig=  9.96310e-08
i_vdd_avg           =  -1.37653e-06 from=  1.00000e-08 to=  3.30000e-07
power_avg_uw        =  2.22998e+00


Total analysis time (seconds) = 4.30544

Total elapsed time (seconds) = 4.365 

Total DRAM available = 16384.000 MB.
DRAM currently available =  136.797 MB.
Maximum ngspice program size =   12.578 MB.
Current ngspice program size =   12.391 MB.

