
Note: No compatibility mode selected!


Circuit: GF180MCU library cell nand2_4 A1_to_ZN__A2=1

Doing analysis at TEMP = 25.000000 and TNOM = 27.000000

Using SPARSE 1.3 as Direct Linear Solver

Initial Transient Solution
--------------------------

Node                                   Voltage
----                                   -------
vdd                                        1.8
a1                                           0
a2                                         1.8
xu1.net_0_0                        1.86624e-10
zn                                         1.8
xu1.net_0_1                        1.86624e-10
xu1.net_0_2                        1.86624e-10
xu1.net_0_3                        1.86624e-10
vfix_a2#branch                               0
vin#branch                                   0
vdd#branch                         -7.3721e-12

 Reference value :  3.82275e-08
 Reference value :  8.69025e-08
 Reference value :  1.34813e-07
 Reference value :  1.83323e-07
 Reference value :  2.31653e-07
 Reference value :  2.80257e-07
 Reference value :  3.25802e-07
No. of Data Rows : 68032

  Measurements for Transient Analysis

tphl                =  7.41317e-09 targ=  3.74132e-08 trig=  3.00000e-08
tplh                =  1.04507e-08 targ=  1.22451e-07 trig=  1.12000e-07
i_vdd_avg           =  -8.61642e-06 from=  1.00000e-08 to=  3.30002e-07
power_avg_uw        =  1.55095e+01


Total analysis time (seconds) = 4.03795

Total elapsed time (seconds) = 4.105 

Total DRAM available = 16384.000 MB.
DRAM currently available =  145.797 MB.
Maximum ngspice program size =   13.281 MB.
Current ngspice program size =   13.281 MB.

