
Note: No compatibility mode selected!


Circuit: GF180MCU library cell mux2_4 I0_to_Z__I1=0,S=0

Doing analysis at TEMP = 125.000000 and TNOM = 27.000000

Using SPARSE 1.3 as Direct Linear Solver

Initial Transient Solution
--------------------------

Node                                   Voltage
----                                   -------
vdd                                       1.62
i0                                           0
i1                                           0
s                                            0
xu1.int04                                 1.62
z                                  2.06213e-08
xu1.net_1                            0.0350895
xu1.net_3                              1.11497
xu1.sel1_n                                1.62
xu1.net_0                                 1.62
xu1.net_2                                 1.62
vfix_s#branch                                0
vfix_i1#branch                               0
vin#branch                                   0
vdd#branch                        -1.66883e-11

 Reference value :  2.85975e-08
 Reference value :  6.87025e-08
 Reference value :  1.08398e-07
 Reference value :  1.48823e-07
 Reference value :  1.87948e-07
 Reference value :  2.28368e-07
 Reference value :  2.66772e-07
 Reference value :  3.04647e-07
No. of Data Rows : 68032

  Measurements for Transient Analysis

tplh                =  1.62813e-08 targ=  4.02913e-08 trig=  2.40100e-08
tphl                =  9.68401e-09 targ=  1.03714e-07 trig=  9.40300e-08
i_vdd_avg           =  -8.03989e-06 from=  1.00000e-08 to=  3.30002e-07
power_avg_uw        =  1.30246e+01


Total analysis time (seconds) = 4.7698

Total elapsed time (seconds) = 4.835 

Total DRAM available = 16384.000 MB.
DRAM currently available =  131.031 MB.
Maximum ngspice program size =   13.609 MB.
Current ngspice program size =   13.609 MB.

