
Note: No compatibility mode selected!


Circuit: GF180MCU library cell inv_1 I_to_ZN

Doing analysis at TEMP = -40.000000 and TNOM = 27.000000

Using SPARSE 1.3 as Direct Linear Solver

Initial Transient Solution
--------------------------

Node                                   Voltage
----                                   -------
vdd                                       1.98
i                                            0
zn                                        1.98
vin#branch                                   0
vdd#branch                        -1.99251e-12

 Reference value :  1.87121e-07
No. of Data Rows : 68034

  Measurements for Transient Analysis

tphl                =  2.97477e-10 targ=  2.43075e-08 trig=  2.40100e-08
tplh                =  6.31864e-10 targ=  9.46619e-08 trig=  9.40300e-08
i_vdd_avg           =  -4.69502e-07 from=  1.00000e-08 to=  3.30002e-07
power_avg_uw        =  9.29614e-01


Total analysis time (seconds) = 0.714132

Total elapsed time (seconds) = 0.770 

Total DRAM available = 16384.000 MB.
DRAM currently available =  129.797 MB.
Maximum ngspice program size =   15.938 MB.
Current ngspice program size =   15.938 MB.

