
Note: No compatibility mode selected!


Circuit: GF180MCU library cell nand2_4 A1_to_ZN__A2=1

Doing analysis at TEMP = 125.000000 and TNOM = 27.000000

Using SPARSE 1.3 as Direct Linear Solver

Initial Transient Solution
--------------------------

Node                                   Voltage
----                                   -------
vdd                                       1.62
a1                                           0
a2                                        1.62
xu1.net_0_0                        1.46007e-08
zn                                        1.62
xu1.net_0_1                        1.46007e-08
xu1.net_0_2                        1.46007e-08
xu1.net_0_3                        1.46007e-08
vfix_a2#branch                               0
vin#branch                                   0
vdd#branch                         -1.1416e-11

 Reference value :  3.85275e-08
 Reference value :  9.05725e-08
 Reference value :  1.38012e-07
 Reference value :  1.90123e-07
 Reference value :  2.36713e-07
 Reference value :  2.81967e-07
 Reference value :  3.23582e-07
No. of Data Rows : 68032

  Measurements for Transient Analysis

tphl                =  1.64427e-09 targ=  2.56543e-08 trig=  2.40100e-08
tplh                =  2.40730e-09 targ=  9.64373e-08 trig=  9.40300e-08
i_vdd_avg           =  -1.17150e-06 from=  1.00000e-08 to=  3.30002e-07
power_avg_uw        =  1.89783e+00


Total analysis time (seconds) = 3.11593

Total elapsed time (seconds) = 3.177 

Total DRAM available = 16384.000 MB.
DRAM currently available =   70.562 MB.
Maximum ngspice program size =   13.844 MB.
Current ngspice program size =   13.844 MB.

