
Note: No compatibility mode selected!


Circuit: GF180MCU library cell nand2_1 A1_to_ZN__A2=1

Doing analysis at TEMP = -40.000000 and TNOM = 27.000000

Using SPARSE 1.3 as Direct Linear Solver

Initial Transient Solution
--------------------------

Node                                   Voltage
----                                   -------
vdd                                       1.98
a1                                           0
a2                                        1.98
xu1.net_0                           7.8808e-12
zn                                        1.98
vfix_a2#branch                               0
vin#branch                                   0
vdd#branch                        -1.99251e-12

 Reference value :  1.14038e-07
 Reference value :  2.71017e-07
No. of Data Rows : 68034

  Measurements for Transient Analysis

tphl                =  5.55829e-11 targ=  2.40656e-08 trig=  2.40100e-08
tplh                =  6.67667e-11 targ=  9.40968e-08 trig=  9.40300e-08
i_vdd_avg           =  -4.01723e-08 from=  1.00000e-08 to=  3.30002e-07
power_avg_uw        =  7.95411e-02


Total analysis time (seconds) = 1.25688

Total elapsed time (seconds) = 1.316 

Total DRAM available = 16384.000 MB.
DRAM currently available =  102.469 MB.
Maximum ngspice program size =   15.578 MB.
Current ngspice program size =   15.578 MB.

