
Note: No compatibility mode selected!


Circuit: GF180MCU library cell xor2_4 A1_to_Z__A2=0

Doing analysis at TEMP = 125.000000 and TNOM = 27.000000

Using SPARSE 1.3 as Direct Linear Solver

Initial Transient Solution
--------------------------

Node                                   Voltage
----                                   -------
vdd                                       1.62
a1                                           0
a2                                           0
xu1.net_2                            0.0406046
xu1.i                                     1.62
xu1.net_0                          2.92015e-08
xu1.z_neg                                 1.62
z                                  2.06213e-08
xu1.net_1                                 1.62
vfix_a2#branch                               0
vin#branch                                   0
vdd#branch                        -1.60386e-11

 Reference value :  3.14125e-08
 Reference value :  7.13625e-08
 Reference value :  1.11778e-07
 Reference value :  1.52973e-07
 Reference value :  1.90713e-07
 Reference value :  2.28688e-07
 Reference value :  2.68787e-07
 Reference value :  3.05837e-07
No. of Data Rows : 68032

  Measurements for Transient Analysis

tplh                =  1.98477e-08 targ=  5.63477e-08 trig=  3.65000e-08
tphl                =  1.64136e-08 targ=  1.47914e-07 trig=  1.31500e-07
i_vdd_avg           =  -7.99168e-06 from=  1.00000e-08 to=  3.30002e-07
power_avg_uw        =  1.29465e+01


Total analysis time (seconds) = 3.76349

Total elapsed time (seconds) = 3.821 

Total DRAM available = 16384.000 MB.
DRAM currently available =  171.516 MB.
Maximum ngspice program size =   15.703 MB.
Current ngspice program size =   15.703 MB.

