
Note: No compatibility mode selected!


Circuit: GF180MCU library cell inv_4 I_to_ZN

Doing analysis at TEMP = -40.000000 and TNOM = 27.000000

Using SPARSE 1.3 as Direct Linear Solver

Initial Transient Solution
--------------------------

Node                                   Voltage
----                                   -------
vdd                                       1.98
i                                            0
zn                                        1.98
vin#branch                                   0
vdd#branch                        -7.97006e-12

 Reference value :  7.82893e-08
 Reference value :  1.71352e-07
 Reference value :  2.61947e-07
No. of Data Rows : 68036

  Measurements for Transient Analysis

tphl                =  2.50687e-11 targ=  2.40351e-08 trig=  2.40100e-08
tplh                =  3.73851e-11 targ=  9.40674e-08 trig=  9.40300e-08
i_vdd_avg           =  -9.10451e-08 from=  1.00000e-08 to=  3.30002e-07
power_avg_uw        =  1.80269e-01


Total analysis time (seconds) = 2.17704

Total elapsed time (seconds) = 2.228 

Total DRAM available = 16384.000 MB.
DRAM currently available =  101.297 MB.
Maximum ngspice program size =   13.375 MB.
Current ngspice program size =   13.375 MB.

