
Note: No compatibility mode selected!


Circuit: GF180MCU library cell inv_1 I_to_ZN

Doing analysis at TEMP = -40.000000 and TNOM = 27.000000

Using SPARSE 1.3 as Direct Linear Solver

Initial Transient Solution
--------------------------

Node                                   Voltage
----                                   -------
vdd                                       1.98
i                                            0
zn                                        1.98
vin#branch                                   0
vdd#branch                        -1.99251e-12

 Reference value :  1.85811e-07
No. of Data Rows : 68034

  Measurements for Transient Analysis

tphl                =  5.10100e-10 targ=  2.50266e-08 trig=  2.45165e-08
tplh                =  8.91150e-10 targ=  9.64406e-08 trig=  9.55495e-08
i_vdd_avg           =  -4.65783e-07 from=  1.00000e-08 to=  3.30003e-07
power_avg_uw        =  9.22251e-01


Total analysis time (seconds) = 0.734969

Total elapsed time (seconds) = 0.816 

Total DRAM available = 16384.000 MB.
DRAM currently available =  129.797 MB.
Maximum ngspice program size =   16.234 MB.
Current ngspice program size =   16.234 MB.

