
Note: No compatibility mode selected!


Circuit: GF180MCU library cell oai21_1 A1_to_ZN__A2=0,B=1

Doing analysis at TEMP = 25.000000 and TNOM = 27.000000

Using SPARSE 1.3 as Direct Linear Solver

Initial Transient Solution
--------------------------

Node                                   Voltage
----                                   -------
vdd                                        1.8
a1                                           0
a2                                           0
b                                          1.8
zn                                         1.8
xu1.net_0                          3.73248e-10
xu1.net_1                                  1.8
vfix_b#branch                                0
vfix_a2#branch                               0
vin#branch                                   0
vdd#branch                        -3.68605e-12

 Reference value :  7.82475e-08
 Reference value :  1.78468e-07
 Reference value :  2.85312e-07
No. of Data Rows : 68032

  Measurements for Transient Analysis

tphl                =  1.68840e-09 targ=  3.16884e-08 trig=  3.00000e-08
tplh                =  4.12926e-09 targ=  1.16129e-07 trig=  1.12000e-07
i_vdd_avg           =  -2.05962e-07 from=  1.00000e-08 to=  3.30002e-07
power_avg_uw        =  3.70732e-01


Total analysis time (seconds) = 1.85826

Total elapsed time (seconds) = 1.917 

Total DRAM available = 16384.000 MB.
DRAM currently available =   79.641 MB.
Maximum ngspice program size =   14.641 MB.
Current ngspice program size =   14.641 MB.

