
Note: No compatibility mode selected!


Circuit: GF180MCU library cell inv_1 I_to_ZN

Doing analysis at TEMP = -40.000000 and TNOM = 27.000000

Using SPARSE 1.3 as Direct Linear Solver

Initial Transient Solution
--------------------------

Node                                   Voltage
----                                   -------
vdd                                       1.98
i                                            0
zn                                        1.98
vin#branch                                   0
vdd#branch                        -1.99251e-12

 Reference value :  2.05821e-07
No. of Data Rows : 68034

  Measurements for Transient Analysis

tphl                =  2.01732e-09 targ=  2.65338e-08 trig=  2.45165e-08
tplh                =  4.15349e-09 targ=  9.97030e-08 trig=  9.55495e-08
i_vdd_avg           =  -2.92721e-06 from=  1.00000e-08 to=  3.30003e-07
power_avg_uw        =  5.79589e+00


Total analysis time (seconds) = 0.681337

Total elapsed time (seconds) = 0.757 

Total DRAM available = 16384.000 MB.
DRAM currently available =  129.797 MB.
Maximum ngspice program size =   14.922 MB.
Current ngspice program size =   14.922 MB.

