
Note: No compatibility mode selected!


Circuit: GF180MCU library cell nor2_1 A1_to_ZN__A2=0

Doing analysis at TEMP = 25.000000 and TNOM = 27.000000

Using SPARSE 1.3 as Direct Linear Solver

Initial Transient Solution
--------------------------

Node                                   Voltage
----                                   -------
vdd                                        1.8
a1                                           0
a2                                           0
zn                                         1.8
xu1.net_0                                  1.8
vfix_a2#branch                               0
vin#branch                                   0
vdd#branch                        -3.69337e-12

 Reference value :  1.39525e-07
 Reference value :  2.99524e-07
No. of Data Rows : 68032

  Measurements for Transient Analysis

tphl                =  7.81611e-10 targ=  2.56871e-08 trig=  2.49055e-08
tplh                =  1.68556e-09 targ=  9.84021e-08 trig=  9.67165e-08
i_vdd_avg           =  -1.95620e-07 from=  1.00000e-08 to=  3.30004e-07
power_avg_uw        =  3.52116e-01


Total analysis time (seconds) = 0.632302

Total elapsed time (seconds) = 0.693 

Total DRAM available = 16384.000 MB.
DRAM currently available =   94.094 MB.
Maximum ngspice program size =   15.047 MB.
Current ngspice program size =   15.047 MB.

