
Note: No compatibility mode selected!


Circuit: GF180MCU library cell aoi21_4 A1_to_ZN__A2=1,B=0

Doing analysis at TEMP = -40.000000 and TNOM = 27.000000

Using SPARSE 1.3 as Direct Linear Solver

Initial Transient Solution
--------------------------

Node                                   Voltage
----                                   -------
vdd                                       1.98
a1                                           0
a2                                        1.98
b                                            0
xu1.net_0_0                        7.88074e-12
zn                                        1.98
xu1.net_0_1                        7.88076e-12
xu1.net_0_2                        7.88074e-12
xu1.net_0_3                        7.88076e-12
xu1.net_1                                 1.98
vfix_b#branch                                0
vfix_a2#branch                               0
vin#branch                                   0
vdd#branch                        -1.59439e-11

 Reference value :  2.31414e-08
 Reference value :  5.53375e-08
 Reference value :  8.73925e-08
 Reference value :  1.19073e-07
 Reference value :  1.51643e-07
 Reference value :  1.84653e-07
 Reference value :  2.17223e-07
 Reference value :  2.46698e-07
 Reference value :  2.79627e-07
 Reference value :  3.12532e-07
No. of Data Rows : 68032

  Measurements for Transient Analysis

tphl                =  -2.32043e-10 targ=  2.71680e-08 trig=  2.74000e-08
tplh                =  9.16068e-10 targ=  1.05116e-07 trig=  1.04200e-07
i_vdd_avg           =  -3.62105e-07 from=  1.00000e-08 to=  3.30002e-07
power_avg_uw        =  7.16969e-01


Total analysis time (seconds) = 5.91029

Total elapsed time (seconds) = 5.979 

Total DRAM available = 16384.000 MB.
DRAM currently available =  130.047 MB.
Maximum ngspice program size =   14.953 MB.
Current ngspice program size =   14.953 MB.

