
Note: No compatibility mode selected!


Circuit: GF180MCU library cell aoi21_4 A1_to_ZN__A2=1,B=0

Doing analysis at TEMP = 25.000000 and TNOM = 27.000000

Using SPARSE 1.3 as Direct Linear Solver

Initial Transient Solution
--------------------------

Node                                   Voltage
----                                   -------
vdd                                        1.8
a1                                           0
a2                                         1.8
b                                            0
xu1.net_0_0                        1.86624e-10
zn                                         1.8
xu1.net_0_1                        1.86624e-10
xu1.net_0_2                        1.86624e-10
xu1.net_0_3                        1.86624e-10
xu1.net_1                                  1.8
vfix_b#branch                                0
vfix_a2#branch                               0
vin#branch                                   0
vdd#branch                        -1.47849e-11

 Reference value :  2.54575e-08
 Reference value :  5.94525e-08
 Reference value :  9.19375e-08
 Reference value :  1.27488e-07
 Reference value :  1.63158e-07
 Reference value :  1.95393e-07
 Reference value :  2.28973e-07
 Reference value :  2.59302e-07
 Reference value :  2.90457e-07
 Reference value :  3.22417e-07
No. of Data Rows : 68032

  Measurements for Transient Analysis

tphl                =  5.06322e-09 targ=  3.50632e-08 trig=  3.00000e-08
tplh                =  1.01509e-08 targ=  1.22151e-07 trig=  1.12000e-07
i_vdd_avg           =  -4.46682e-06 from=  1.00000e-08 to=  3.30002e-07
power_avg_uw        =  8.04027e+00


Total analysis time (seconds) = 4.94199

Total elapsed time (seconds) = 5.004 

Total DRAM available = 16384.000 MB.
DRAM currently available =  135.188 MB.
Maximum ngspice program size =   13.344 MB.
Current ngspice program size =   13.344 MB.

