
Note: No compatibility mode selected!


Circuit: GF180MCU library cell inv_4 I_to_ZN

Doing analysis at TEMP = 25.000000 and TNOM = 27.000000

Using SPARSE 1.3 as Direct Linear Solver

Initial Transient Solution
--------------------------

Node                                   Voltage
----                                   -------
vdd                                        1.8
i                                            0
zn                                         1.8
vin#branch                                   0
vdd#branch                         -7.3721e-12

 Reference value :  7.26425e-08
 Reference value :  1.69788e-07
 Reference value :  2.55347e-07
No. of Data Rows : 68032

  Measurements for Transient Analysis

tphl                =  2.04149e-09 targ=  3.20415e-08 trig=  3.00000e-08
tplh                =  4.29837e-09 targ=  1.16298e-07 trig=  1.12000e-07
i_vdd_avg           =  -1.48064e-06 from=  1.00000e-08 to=  3.30002e-07
power_avg_uw        =  2.66516e+00


Total analysis time (seconds) = 2.29346

Total elapsed time (seconds) = 2.350 

Total DRAM available = 16384.000 MB.
DRAM currently available =  101.297 MB.
Maximum ngspice program size =   16.156 MB.
Current ngspice program size =   16.156 MB.

