
Note: No compatibility mode selected!


Circuit: GF180MCU library cell xor2_4 A1_to_Z__A2=0

Doing analysis at TEMP = 125.000000 and TNOM = 27.000000

Using SPARSE 1.3 as Direct Linear Solver

Initial Transient Solution
--------------------------

Node                                   Voltage
----                                   -------
vdd                                       1.62
a1                                           0
a2                                           0
xu1.net_2                            0.0406046
xu1.i                                     1.62
xu1.net_0                          2.92015e-08
xu1.z_neg                                 1.62
z                                  2.06213e-08
xu1.net_1                                 1.62
vfix_a2#branch                               0
vin#branch                                   0
vdd#branch                        -1.60386e-11

 Reference value :  3.21625e-08
 Reference value :  7.52325e-08
 Reference value :  1.16888e-07
 Reference value :  1.58653e-07
 Reference value :  1.98258e-07
 Reference value :  2.41518e-07
 Reference value :  2.85087e-07
 Reference value :  3.23952e-07
No. of Data Rows : 68032

  Measurements for Transient Analysis

tplh                =  3.66338e-09 targ=  2.76734e-08 trig=  2.40100e-08
tphl                =  4.70553e-09 targ=  9.87355e-08 trig=  9.40300e-08
i_vdd_avg           =  -1.38420e-06 from=  1.00000e-08 to=  3.30002e-07
power_avg_uw        =  2.24240e+00


Total analysis time (seconds) = 4.71623

Total elapsed time (seconds) = 4.778 

Total DRAM available = 16384.000 MB.
DRAM currently available =   75.062 MB.
Maximum ngspice program size =   15.750 MB.
Current ngspice program size =   15.750 MB.

