
Note: No compatibility mode selected!


Circuit: GF180MCU library cell nand2_4 A1_to_ZN__A2=1

Doing analysis at TEMP = 25.000000 and TNOM = 27.000000

Using SPARSE 1.3 as Direct Linear Solver

Initial Transient Solution
--------------------------

Node                                   Voltage
----                                   -------
vdd                                        1.8
a1                                           0
a2                                         1.8
xu1.net_0_0                        1.86624e-10
zn                                         1.8
xu1.net_0_1                        1.86624e-10
xu1.net_0_2                        1.86624e-10
xu1.net_0_3                        1.86624e-10
vfix_a2#branch                               0
vin#branch                                   0
vdd#branch                         -7.3721e-12

 Reference value :  3.61725e-08
 Reference value :  8.47325e-08
 Reference value :  1.37720e-07
 Reference value :  1.86417e-07
 Reference value :  2.33962e-07
 Reference value :  2.82870e-07
 Reference value :  3.32205e-07
No. of Data Rows : 68036

  Measurements for Transient Analysis

tphl                =  4.79278e-09 targ=  2.88028e-08 trig=  2.40100e-08
tplh                =  6.93266e-09 targ=  1.00963e-07 trig=  9.40300e-08
i_vdd_avg           =  -8.62808e-06 from=  1.00000e-08 to=  3.30000e-07
power_avg_uw        =  1.55305e+01


Total analysis time (seconds) = 3.98092

Total elapsed time (seconds) = 4.038 

Total DRAM available = 16384.000 MB.
DRAM currently available =  130.469 MB.
Maximum ngspice program size =   14.484 MB.
Current ngspice program size =   14.484 MB.

