
Note: No compatibility mode selected!


Circuit: GF180MCU library cell nand2_1 A1_to_ZN__A2=1

Doing analysis at TEMP = 25.000000 and TNOM = 27.000000

Using SPARSE 1.3 as Direct Linear Solver

Initial Transient Solution
--------------------------

Node                                   Voltage
----                                   -------
vdd                                        1.8
a1                                           0
a2                                         1.8
xu1.net_0                          1.86624e-10
zn                                         1.8
vfix_a2#branch                               0
vin#branch                                   0
vdd#branch                        -1.84302e-12

 Reference value :  1.34888e-07
 Reference value :  2.95337e-07
No. of Data Rows : 68032

  Measurements for Transient Analysis

tphl                =  1.03699e-10 targ=  3.01037e-08 trig=  3.00000e-08
tplh                =  1.63694e-09 targ=  1.13637e-07 trig=  1.12000e-07
i_vdd_avg           =  -4.33732e-08 from=  1.00000e-08 to=  3.30002e-07
power_avg_uw        =  7.80718e-02


Total analysis time (seconds) = 1.17468

Total elapsed time (seconds) = 1.230 

Total DRAM available = 16384.000 MB.
DRAM currently available =  102.469 MB.
Maximum ngspice program size =   13.547 MB.
Current ngspice program size =   13.547 MB.

