
Note: No compatibility mode selected!


Circuit: GF180MCU library cell nor2_4 A1_to_ZN__A2=0

Doing analysis at TEMP = -40.000000 and TNOM = 27.000000

Using SPARSE 1.3 as Direct Linear Solver

Initial Transient Solution
--------------------------

Node                                   Voltage
----                                   -------
vdd                                       1.98
a1                                           0
a2                                           0
zn                                        1.98
xu1.net_0_0                               1.98
xu1.net_0_1                               1.98
xu1.net_0_2                               1.98
xu1.net_0_3                               1.98
vfix_a2#branch                               0
vin#branch                                   0
vdd#branch                        -1.59433e-11

 Reference value :  3.74075e-08
 Reference value :  8.17775e-08
 Reference value :  1.26976e-07
 Reference value :  1.71226e-07
 Reference value :  2.20523e-07
 Reference value :  2.68986e-07
 Reference value :  3.14641e-07
No. of Data Rows : 68034

  Measurements for Transient Analysis

tphl                =  2.21462e-10 targ=  2.42315e-08 trig=  2.40100e-08
tplh                =  6.59255e-10 targ=  9.46893e-08 trig=  9.40300e-08
i_vdd_avg           =  -9.99154e-07 from=  1.00000e-08 to=  3.30001e-07
power_avg_uw        =  1.97833e+00


Total analysis time (seconds) = 4.24244

Total elapsed time (seconds) = 4.302 

Total DRAM available = 16384.000 MB.
DRAM currently available =  116.094 MB.
Maximum ngspice program size =   14.609 MB.
Current ngspice program size =   14.609 MB.

