
Note: No compatibility mode selected!


Circuit: GF180MCU library cell mux2_4 I0_to_Z__I1=0,S=0

Doing analysis at TEMP = 125.000000 and TNOM = 27.000000

Using SPARSE 1.3 as Direct Linear Solver

Initial Transient Solution
--------------------------

Node                                   Voltage
----                                   -------
vdd                                       1.62
i0                                           0
i1                                           0
s                                            0
xu1.int04                                 1.62
z                                  2.06213e-08
xu1.net_1                            0.0350895
xu1.net_3                              1.11497
xu1.sel1_n                                1.62
xu1.net_0                                 1.62
xu1.net_2                                 1.62
vfix_s#branch                                0
vfix_i1#branch                               0
vin#branch                                   0
vdd#branch                        -1.66883e-11

 Reference value :  2.90065e-08
 Reference value :  6.71265e-08
 Reference value :  1.03376e-07
 Reference value :  1.43596e-07
 Reference value :  1.83056e-07
 Reference value :  2.22232e-07
 Reference value :  2.61960e-07
 Reference value :  3.00925e-07
 Reference value :  3.39550e-07
No. of Data Rows : 68032

  Measurements for Transient Analysis

tplh                =  1.70704e-08 targ=  4.29474e-08 trig=  2.58770e-08
tphl                =  1.06390e-08 targ=  1.10270e-07 trig=  9.96310e-08
i_vdd_avg           =  -8.03648e-06 from=  1.00000e-08 to=  3.30000e-07
power_avg_uw        =  1.30191e+01


Total analysis time (seconds) = 4.86411

Total elapsed time (seconds) = 4.936 

Total DRAM available = 16384.000 MB.
DRAM currently available =  113.984 MB.
Maximum ngspice program size =   16.000 MB.
Current ngspice program size =   16.000 MB.

