
Note: No compatibility mode selected!


Circuit: GF180MCU library cell aoi21_1 A1_to_ZN__A2=1,B=0

Doing analysis at TEMP = -40.000000 and TNOM = 27.000000

Using SPARSE 1.3 as Direct Linear Solver

Initial Transient Solution
--------------------------

Node                                   Voltage
----                                   -------
vdd                                       1.98
a1                                           0
a2                                        1.98
b                                            0
xu1.net_0                          7.88078e-12
zn                                        1.98
xu1.net_1                                 1.98
vfix_b#branch                                0
vfix_a2#branch                               0
vin#branch                                   0
vdd#branch                        -3.98597e-12

 Reference value :  1.07319e-07
 Reference value :  2.11641e-07
 Reference value :  3.06088e-07
No. of Data Rows : 68034

  Measurements for Transient Analysis

tphl                =  4.72375e-10 targ=  2.49889e-08 trig=  2.45165e-08
tplh                =  9.21558e-10 targ=  9.64711e-08 trig=  9.55495e-08
i_vdd_avg           =  -2.61714e-07 from=  1.00000e-08 to=  3.30003e-07
power_avg_uw        =  5.18193e-01


Total analysis time (seconds) = 1.00054

Total elapsed time (seconds) = 1.060 

Total DRAM available = 16384.000 MB.
DRAM currently available =  152.938 MB.
Maximum ngspice program size =   12.875 MB.
Current ngspice program size =   12.875 MB.

