
Note: No compatibility mode selected!


Circuit: GF180MCU library cell aoi21_4 A1_to_ZN__A2=1,B=0

Doing analysis at TEMP = 25.000000 and TNOM = 27.000000

Using SPARSE 1.3 as Direct Linear Solver

Initial Transient Solution
--------------------------

Node                                   Voltage
----                                   -------
vdd                                        1.8
a1                                           0
a2                                         1.8
b                                            0
xu1.net_0_0                        1.86624e-10
zn                                         1.8
xu1.net_0_1                        1.86624e-10
xu1.net_0_2                        1.86624e-10
xu1.net_0_3                        1.86624e-10
xu1.net_1                                  1.8
vfix_b#branch                                0
vfix_a2#branch                               0
vin#branch                                   0
vdd#branch                        -1.47849e-11

 Reference value :  2.33114e-08
 Reference value :  5.76625e-08
 Reference value :  9.19525e-08
 Reference value :  1.25798e-07
 Reference value :  1.59683e-07
 Reference value :  1.95153e-07
 Reference value :  2.26598e-07
 Reference value :  2.58037e-07
 Reference value :  2.89762e-07
 Reference value :  3.22167e-07
No. of Data Rows : 68032

  Measurements for Transient Analysis

tphl                =  1.61433e-09 targ=  3.16143e-08 trig=  3.00000e-08
tplh                =  4.04596e-09 targ=  1.16046e-07 trig=  1.12000e-07
i_vdd_avg           =  -7.78178e-07 from=  1.00000e-08 to=  3.30002e-07
power_avg_uw        =  1.40072e+00


Total analysis time (seconds) = 4.8313

Total elapsed time (seconds) = 4.892 

Total DRAM available = 16384.000 MB.
DRAM currently available =  135.188 MB.
Maximum ngspice program size =   12.750 MB.
Current ngspice program size =   12.516 MB.

