
Note: No compatibility mode selected!


Circuit: GF180MCU library cell nor2_4 A1_to_ZN__A2=0

Doing analysis at TEMP = 25.000000 and TNOM = 27.000000

Using SPARSE 1.3 as Direct Linear Solver

Initial Transient Solution
--------------------------

Node                                   Voltage
----                                   -------
vdd                                        1.8
a1                                           0
a2                                           0
zn                                         1.8
xu1.net_0_0                                1.8
xu1.net_0_1                                1.8
xu1.net_0_2                                1.8
xu1.net_0_3                                1.8
vfix_a2#branch                               0
vin#branch                                   0
vdd#branch                        -1.47735e-11

 Reference value :  3.80475e-08
 Reference value :  8.54775e-08
 Reference value :  1.31301e-07
 Reference value :  1.78566e-07
 Reference value :  2.23043e-07
 Reference value :  2.70151e-07
 Reference value :  3.17816e-07
No. of Data Rows : 68034

  Measurements for Transient Analysis

tphl                =  1.97539e-09 targ=  2.59854e-08 trig=  2.40100e-08
tplh                =  7.04966e-09 targ=  1.01080e-07 trig=  9.40300e-08
i_vdd_avg           =  -4.57520e-06 from=  1.00000e-08 to=  3.30001e-07
power_avg_uw        =  8.23536e+00


Total analysis time (seconds) = 4.19917

Total elapsed time (seconds) = 4.261 

Total DRAM available = 16384.000 MB.
DRAM currently available =   90.297 MB.
Maximum ngspice program size =   16.375 MB.
Current ngspice program size =   16.375 MB.

