
Note: No compatibility mode selected!


Circuit: GF180MCU library cell nand3_4 A1_to_ZN__A2=1,A3=1

Doing analysis at TEMP = 25.000000 and TNOM = 27.000000

Using SPARSE 1.3 as Direct Linear Solver

Initial Transient Solution
--------------------------

Node                                   Voltage
----                                   -------
vdd                                        1.8
a1                                           0
a2                                         1.8
a3                                         1.8
xu1.net_1_3                        1.86624e-10
xu1.net_0                          3.73248e-10
xu1.net_1_2                        1.86624e-10
xu1.net_1_1                        1.86624e-10
xu1.net_1_0                        1.86624e-10
xu1.net_0_0                        3.73248e-10
zn                                         1.8
vfix_a3#branch                               0
vfix_a2#branch                               0
vin#branch                                   0
vdd#branch                         -7.3721e-12

 Reference value :  2.22264e-08
 Reference value :  4.97435e-08
 Reference value :  8.03485e-08
 Reference value :  1.10865e-07
 Reference value :  1.41130e-07
 Reference value :  1.72635e-07
 Reference value :  2.01794e-07
 Reference value :  2.32069e-07
 Reference value :  2.60709e-07
 Reference value :  2.90054e-07
 Reference value :  3.20459e-07
No. of Data Rows : 68032

  Measurements for Transient Analysis

tphl                =  1.35017e-09 targ=  2.62557e-08 trig=  2.49055e-08
tplh                =  1.65928e-09 targ=  9.83758e-08 trig=  9.67165e-08
i_vdd_avg           =  -1.20719e-06 from=  1.00000e-08 to=  3.30004e-07
power_avg_uw        =  2.17294e+00


Total analysis time (seconds) = 6.26736

Total elapsed time (seconds) = 6.334 

Total DRAM available = 16384.000 MB.
DRAM currently available =  110.141 MB.
Maximum ngspice program size =   14.766 MB.
Current ngspice program size =   14.766 MB.

