
Note: No compatibility mode selected!


Circuit: GF180MCU library cell inv_1 I_to_ZN

Doing analysis at TEMP = 25.000000 and TNOM = 27.000000

Using SPARSE 1.3 as Direct Linear Solver

Initial Transient Solution
--------------------------

Node                                   Voltage
----                                   -------
vdd                                        1.8
i                                            0
zn                                         1.8
vin#branch                                   0
vdd#branch                        -1.84302e-12

 Reference value :  1.87214e-07
No. of Data Rows : 68032

  Measurements for Transient Analysis

tphl                =  3.32778e-09 targ=  2.82333e-08 trig=  2.49055e-08
tplh                =  7.46664e-09 targ=  1.04183e-07 trig=  9.67165e-08
i_vdd_avg           =  -2.33752e-06 from=  1.00000e-08 to=  3.30004e-07
power_avg_uw        =  4.20753e+00


Total analysis time (seconds) = 0.669922

Total elapsed time (seconds) = 0.764 

Total DRAM available = 16384.000 MB.
DRAM currently available =  129.797 MB.
Maximum ngspice program size =   18.188 MB.
Current ngspice program size =   18.188 MB.

