
Note: No compatibility mode selected!


Circuit: GF180MCU library cell nor2_1 A1_to_ZN__A2=0

Doing analysis at TEMP = 25.000000 and TNOM = 27.000000

Using SPARSE 1.3 as Direct Linear Solver

Initial Transient Solution
--------------------------

Node                                   Voltage
----                                   -------
vdd                                        1.8
a1                                           0
a2                                           0
zn                                         1.8
xu1.net_0                                  1.8
vfix_a2#branch                               0
vin#branch                                   0
vdd#branch                        -3.69337e-12

 Reference value :  1.53363e-07
 Reference value :  3.17117e-07
No. of Data Rows : 68032

  Measurements for Transient Analysis

tphl                =  1.96932e-09 targ=  2.59793e-08 trig=  2.40100e-08
tplh                =  7.02782e-09 targ=  1.01058e-07 trig=  9.40300e-08
i_vdd_avg           =  -1.14026e-06 from=  1.00000e-08 to=  3.30002e-07
power_avg_uw        =  2.05247e+00


Total analysis time (seconds) = 0.521892

Total elapsed time (seconds) = 0.584 

Total DRAM available = 16384.000 MB.
DRAM currently available =   75.578 MB.
Maximum ngspice program size =   15.125 MB.
Current ngspice program size =   15.125 MB.

