
Note: No compatibility mode selected!


Circuit: GF180MCU library cell nand3_4 A1_to_ZN__A2=1,A3=1

Doing analysis at TEMP = -40.000000 and TNOM = 27.000000

Using SPARSE 1.3 as Direct Linear Solver

Initial Transient Solution
--------------------------

Node                                   Voltage
----                                   -------
vdd                                       1.98
a1                                           0
a2                                        1.98
a3                                        1.98
xu1.net_1_3                        7.88079e-12
xu1.net_0                          1.57615e-11
xu1.net_1_2                        7.88071e-12
xu1.net_1_1                        7.88079e-12
xu1.net_1_0                        7.88078e-12
xu1.net_0_0                        1.57615e-11
zn                                        1.98
vfix_a3#branch                               0
vfix_a2#branch                               0
vin#branch                                   0
vdd#branch                        -7.97006e-12

 Reference value :  2.35464e-08
 Reference value :  5.31825e-08
 Reference value :  8.17175e-08
 Reference value :  1.11598e-07
 Reference value :  1.42643e-07
 Reference value :  1.75538e-07
 Reference value :  2.05833e-07
 Reference value :  2.37643e-07
 Reference value :  2.68027e-07
 Reference value :  2.95787e-07
 Reference value :  3.25142e-07
No. of Data Rows : 68032

  Measurements for Transient Analysis

tphl                =  4.60288e-09 targ=  3.20029e-08 trig=  2.74000e-08
tplh                =  5.64238e-09 targ=  1.09842e-07 trig=  1.04200e-07
i_vdd_avg           =  -9.41522e-06 from=  1.00000e-08 to=  3.30002e-07
power_avg_uw        =  1.86421e+01


Total analysis time (seconds) = 4.93924

Total elapsed time (seconds) = 5.002 

Total DRAM available = 16384.000 MB.
DRAM currently available =  187.375 MB.
Maximum ngspice program size =   13.938 MB.
Current ngspice program size =   13.938 MB.

