
Note: No compatibility mode selected!


Circuit: GF180MCU library cell xor2_4 A1_to_Z__A2=0

Doing analysis at TEMP = -40.000000 and TNOM = 27.000000

Using SPARSE 1.3 as Direct Linear Solver

Initial Transient Solution
--------------------------

Node                                   Voltage
----                                   -------
vdd                                       1.98
a1                                           0
a2                                           0
xu1.net_2                           0.00394929
xu1.i                                     1.98
xu1.net_0                          1.57615e-11
xu1.z_neg                                 1.98
z                                  6.60779e-09
xu1.net_1                                 1.98
vfix_a2#branch                               0
vin#branch                                   0
vdd#branch                        -1.44208e-11

 Reference value :  3.18225e-08
 Reference value :  7.43675e-08
 Reference value :  1.16988e-07
 Reference value :  1.55578e-07
 Reference value :  1.96763e-07
 Reference value :  2.40533e-07
 Reference value :  2.83487e-07
 Reference value :  3.23272e-07
No. of Data Rows : 68032

  Measurements for Transient Analysis

tplh                =  2.77000e-10 targ=  2.42870e-08 trig=  2.40100e-08
tphl                =  5.52257e-10 targ=  9.45823e-08 trig=  9.40300e-08
i_vdd_avg           =  -2.89440e-07 from=  1.00000e-08 to=  3.30002e-07
power_avg_uw        =  5.73092e-01


Total analysis time (seconds) = 4.70496

Total elapsed time (seconds) = 4.787 

Total DRAM available = 16384.000 MB.
DRAM currently available =   80.969 MB.
Maximum ngspice program size =   13.125 MB.
Current ngspice program size =   13.125 MB.

