
Note: No compatibility mode selected!


Circuit: GF180MCU library cell nor2_1 A1_to_ZN__A2=0

Doing analysis at TEMP = 125.000000 and TNOM = 27.000000

Using SPARSE 1.3 as Direct Linear Solver

Initial Transient Solution
--------------------------

Node                                   Voltage
----                                   -------
vdd                                       1.62
a1                                           0
a2                                           0
zn                                        1.62
xu1.net_0                                 1.62
vfix_a2#branch                               0
vin#branch                                   0
vdd#branch                        -5.73851e-12

 Reference value :  1.42178e-07
 Reference value :  2.92762e-07
No. of Data Rows : 68032

  Measurements for Transient Analysis

tphl                =  9.53519e-10 targ=  3.74535e-08 trig=  3.65000e-08
tplh                =  4.47876e-09 targ=  1.35979e-07 trig=  1.31500e-07
i_vdd_avg           =  -2.74045e-08 from=  1.00000e-08 to=  3.30002e-07
power_avg_uw        =  4.43953e-02


Total analysis time (seconds) = 1.10761

Total elapsed time (seconds) = 1.161 

Total DRAM available = 16384.000 MB.
DRAM currently available =   84.203 MB.
Maximum ngspice program size =   15.500 MB.
Current ngspice program size =   15.500 MB.

