
Note: No compatibility mode selected!


Circuit: GF180MCU library cell nand3_1 A1_to_ZN__A2=1,A3=1

Doing analysis at TEMP = 25.000000 and TNOM = 27.000000

Using SPARSE 1.3 as Direct Linear Solver

Initial Transient Solution
--------------------------

Node                                   Voltage
----                                   -------
vdd                                        1.8
a1                                           0
a2                                         1.8
a3                                         1.8
xu1.net_1                          1.86624e-10
xu1.net_0                          3.73248e-10
zn                                         1.8
vfix_a3#branch                               0
vfix_a2#branch                               0
vin#branch                                   0
vdd#branch                        -1.84302e-12

 Reference value :  8.86435e-08
 Reference value :  1.97394e-07
 Reference value :  2.98064e-07
No. of Data Rows : 68032

  Measurements for Transient Analysis

tphl                =  1.37464e-09 targ=  2.62801e-08 trig=  2.49055e-08
tplh                =  1.68768e-09 targ=  9.84042e-08 trig=  9.67165e-08
i_vdd_avg           =  -3.09465e-07 from=  1.00000e-08 to=  3.30004e-07
power_avg_uw        =  5.57037e-01


Total analysis time (seconds) = 1.67837

Total elapsed time (seconds) = 1.737 

Total DRAM available = 16384.000 MB.
DRAM currently available =  137.844 MB.
Maximum ngspice program size =   12.578 MB.
Current ngspice program size =   12.484 MB.

