
Note: No compatibility mode selected!


Circuit: GF180MCU library cell nand2_4 A1_to_ZN__A2=1

Doing analysis at TEMP = 25.000000 and TNOM = 27.000000

Using SPARSE 1.3 as Direct Linear Solver

Initial Transient Solution
--------------------------

Node                                   Voltage
----                                   -------
vdd                                        1.8
a1                                           0
a2                                         1.8
xu1.net_0_0                        1.86624e-10
zn                                         1.8
xu1.net_0_1                        1.86624e-10
xu1.net_0_2                        1.86624e-10
xu1.net_0_3                        1.86624e-10
vfix_a2#branch                               0
vin#branch                                   0
vdd#branch                         -7.3721e-12

 Reference value :  4.31785e-08
 Reference value :  9.35335e-08
 Reference value :  1.43910e-07
 Reference value :  1.93279e-07
 Reference value :  2.41719e-07
 Reference value :  2.89139e-07
 Reference value :  3.33614e-07
No. of Data Rows : 68032

  Measurements for Transient Analysis

tphl                =  1.17589e-09 targ=  2.60814e-08 trig=  2.49055e-08
tplh                =  1.64485e-09 targ=  9.83613e-08 trig=  9.67165e-08
i_vdd_avg           =  -1.37479e-06 from=  1.00000e-08 to=  3.30004e-07
power_avg_uw        =  2.47461e+00


Total analysis time (seconds) = 3.91669

Total elapsed time (seconds) = 3.972 

Total DRAM available = 16384.000 MB.
DRAM currently available =  130.469 MB.
Maximum ngspice program size =   13.812 MB.
Current ngspice program size =   13.812 MB.

