
Note: No compatibility mode selected!


Circuit: GF180MCU library cell inv_1 I_to_ZN

Doing analysis at TEMP = -40.000000 and TNOM = 27.000000

Using SPARSE 1.3 as Direct Linear Solver

Initial Transient Solution
--------------------------

Node                                   Voltage
----                                   -------
vdd                                       1.98
i                                            0
zn                                        1.98
vin#branch                                   0
vdd#branch                        -1.99251e-12

 Reference value :  1.66504e-07
No. of Data Rows : 68034

  Measurements for Transient Analysis

tphl                =  5.06033e-11 targ=  2.45671e-08 trig=  2.45165e-08
tplh                =  2.21415e-10 targ=  9.57709e-08 trig=  9.55495e-08
i_vdd_avg           =  -3.53351e-08 from=  1.00000e-08 to=  3.30003e-07
power_avg_uw        =  6.99636e-02


Total analysis time (seconds) = 0.802251

Total elapsed time (seconds) = 0.875 

Total DRAM available = 16384.000 MB.
DRAM currently available =  129.797 MB.
Maximum ngspice program size =   17.047 MB.
Current ngspice program size =   17.047 MB.

