
Note: No compatibility mode selected!


Circuit: GF180MCU library cell nand3_4 A1_to_ZN__A2=1,A3=1

Doing analysis at TEMP = 25.000000 and TNOM = 27.000000

Using SPARSE 1.3 as Direct Linear Solver

Initial Transient Solution
--------------------------

Node                                   Voltage
----                                   -------
vdd                                        1.8
a1                                           0
a2                                         1.8
a3                                         1.8
xu1.net_1_3                        1.86624e-10
xu1.net_0                          3.73248e-10
xu1.net_1_2                        1.86624e-10
xu1.net_1_1                        1.86624e-10
xu1.net_1_0                        1.86624e-10
xu1.net_0_0                        3.73248e-10
zn                                         1.8
vfix_a3#branch                               0
vfix_a2#branch                               0
vin#branch                                   0
vdd#branch                         -7.3721e-12

 Reference value :  2.32214e-08
 Reference value :  5.26475e-08
 Reference value :  8.36575e-08
 Reference value :  1.13843e-07
 Reference value :  1.42298e-07
 Reference value :  1.75003e-07
 Reference value :  2.05438e-07
 Reference value :  2.35153e-07
 Reference value :  2.65597e-07
 Reference value :  2.95977e-07
 Reference value :  3.25407e-07
No. of Data Rows : 68032

  Measurements for Transient Analysis

tphl                =  9.28359e-11 targ=  3.00928e-08 trig=  3.00000e-08
tplh                =  1.59105e-09 targ=  1.13591e-07 trig=  1.12000e-07
i_vdd_avg           =  -1.47134e-07 from=  1.00000e-08 to=  3.30002e-07
power_avg_uw        =  2.64841e-01


Total analysis time (seconds) = 6.24102

Total elapsed time (seconds) = 6.305 

Total DRAM available = 16384.000 MB.
DRAM currently available =  118.172 MB.
Maximum ngspice program size =   12.812 MB.
Current ngspice program size =   12.750 MB.

