
Note: No compatibility mode selected!


Circuit: GF180MCU library cell nand3_4 A1_to_ZN__A2=1,A3=1

Doing analysis at TEMP = 25.000000 and TNOM = 27.000000

Using SPARSE 1.3 as Direct Linear Solver

Initial Transient Solution
--------------------------

Node                                   Voltage
----                                   -------
vdd                                        1.8
a1                                           0
a2                                         1.8
a3                                         1.8
xu1.net_1_3                        1.86624e-10
xu1.net_0                          3.73248e-10
xu1.net_1_2                        1.86624e-10
xu1.net_1_1                        1.86624e-10
xu1.net_1_0                        1.86624e-10
xu1.net_0_0                        3.73248e-10
zn                                         1.8
vfix_a3#branch                               0
vfix_a2#branch                               0
vin#branch                                   0
vdd#branch                         -7.3721e-12

 Reference value :  2.15564e-08
 Reference value :  5.29175e-08
 Reference value :  8.52925e-08
 Reference value :  1.15093e-07
 Reference value :  1.44483e-07
 Reference value :  1.75088e-07
 Reference value :  2.04503e-07
 Reference value :  2.34808e-07
 Reference value :  2.64132e-07
 Reference value :  2.92772e-07
 Reference value :  3.22357e-07
No. of Data Rows : 68032

  Measurements for Transient Analysis

tphl                =  8.39333e-09 targ=  3.83933e-08 trig=  3.00000e-08
tplh                =  1.03945e-08 targ=  1.22395e-07 trig=  1.12000e-07
i_vdd_avg           =  -7.42209e-06 from=  1.00000e-08 to=  3.30002e-07
power_avg_uw        =  1.33598e+01


Total analysis time (seconds) = 6.31757

Total elapsed time (seconds) = 6.382 

Total DRAM available = 16384.000 MB.
DRAM currently available =  118.172 MB.
Maximum ngspice program size =   14.734 MB.
Current ngspice program size =   14.734 MB.

