
Note: No compatibility mode selected!


Circuit: GF180MCU library cell aoi21_4 A1_to_ZN__A2=1,B=0

Doing analysis at TEMP = 25.000000 and TNOM = 27.000000

Using SPARSE 1.3 as Direct Linear Solver

Initial Transient Solution
--------------------------

Node                                   Voltage
----                                   -------
vdd                                        1.8
a1                                           0
a2                                         1.8
b                                            0
xu1.net_0_0                        1.86624e-10
zn                                         1.8
xu1.net_0_1                        1.86624e-10
xu1.net_0_2                        1.86624e-10
xu1.net_0_3                        1.86624e-10
xu1.net_1                                  1.8
vfix_b#branch                                0
vfix_a2#branch                               0
vin#branch                                   0
vdd#branch                        -1.47849e-11

 Reference value :  2.40975e-08
 Reference value :  5.49435e-08
 Reference value :  8.85235e-08
 Reference value :  1.22720e-07
 Reference value :  1.57865e-07
 Reference value :  1.91764e-07
 Reference value :  2.23959e-07
 Reference value :  2.56948e-07
 Reference value :  2.87874e-07
 Reference value :  3.18184e-07
No. of Data Rows : 68032

  Measurements for Transient Analysis

tphl                =  8.40969e-10 targ=  2.57465e-08 trig=  2.49055e-08
tplh                =  1.68233e-09 targ=  9.83988e-08 trig=  9.67165e-08
i_vdd_avg           =  -7.66055e-07 from=  1.00000e-08 to=  3.30004e-07
power_avg_uw        =  1.37890e+00


Total analysis time (seconds) = 4.7758

Total elapsed time (seconds) = 4.842 

Total DRAM available = 16384.000 MB.
DRAM currently available =  135.188 MB.
Maximum ngspice program size =   14.219 MB.
Current ngspice program size =   14.219 MB.

