
Note: No compatibility mode selected!


Circuit: GF180MCU library cell nand3_1 A1_to_ZN__A2=1,A3=1

Doing analysis at TEMP = -40.000000 and TNOM = 27.000000

Using SPARSE 1.3 as Direct Linear Solver

Initial Transient Solution
--------------------------

Node                                   Voltage
----                                   -------
vdd                                       1.98
a1                                           0
a2                                        1.98
a3                                        1.98
xu1.net_1                          7.88078e-12
xu1.net_0                          1.57614e-11
zn                                        1.98
vfix_a3#branch                               0
vfix_a2#branch                               0
vin#branch                                   0
vdd#branch                        -1.99251e-12

 Reference value :  7.31855e-08
 Reference value :  1.78429e-07
 Reference value :  2.82588e-07
No. of Data Rows : 68034

  Measurements for Transient Analysis

tphl                =  3.63275e-09 targ=  2.81493e-08 trig=  2.45165e-08
tplh                =  4.13014e-09 targ=  9.96796e-08 trig=  9.55495e-08
i_vdd_avg           =  -2.34924e-06 from=  1.00000e-08 to=  3.30003e-07
power_avg_uw        =  4.65149e+00


Total analysis time (seconds) = 1.85332

Total elapsed time (seconds) = 1.920 

Total DRAM available = 16384.000 MB.
DRAM currently available =  115.031 MB.
Maximum ngspice program size =   16.797 MB.
Current ngspice program size =   16.797 MB.

