
Note: No compatibility mode selected!


Circuit: GF180MCU library cell nand3_1 A1_to_ZN__A2=1,A3=1

Doing analysis at TEMP = 25.000000 and TNOM = 27.000000

Using SPARSE 1.3 as Direct Linear Solver

Initial Transient Solution
--------------------------

Node                                   Voltage
----                                   -------
vdd                                        1.8
a1                                           0
a2                                         1.8
a3                                         1.8
xu1.net_1                          1.86624e-10
xu1.net_0                          3.73248e-10
zn                                         1.8
vfix_a3#branch                               0
vfix_a2#branch                               0
vin#branch                                   0
vdd#branch                        -1.84302e-12

 Reference value :  7.55175e-08
 Reference value :  1.83128e-07
 Reference value :  2.85102e-07
No. of Data Rows : 68032

  Measurements for Transient Analysis

tphl                =  1.47901e-10 targ=  2.41579e-08 trig=  2.40100e-08
tplh                =  1.63856e-10 targ=  9.41939e-08 trig=  9.40300e-08
i_vdd_avg           =  -3.97317e-08 from=  1.00000e-08 to=  3.30002e-07
power_avg_uw        =  7.15171e-02


Total analysis time (seconds) = 1.72173

Total elapsed time (seconds) = 1.791 

Total DRAM available = 16384.000 MB.
DRAM currently available =  103.734 MB.
Maximum ngspice program size =   13.828 MB.
Current ngspice program size =   13.828 MB.

