
Note: No compatibility mode selected!


Circuit: GF180MCU library cell mux2_4 I0_to_Z__I1=0,S=0

Doing analysis at TEMP = 25.000000 and TNOM = 27.000000

Using SPARSE 1.3 as Direct Linear Solver

Initial Transient Solution
--------------------------

Node                                   Voltage
----                                   -------
vdd                                        1.8
i0                                           0
i1                                           0
s                                            0
xu1.int04                                  1.8
z                                  1.07301e-08
xu1.net_1                           0.00821944
xu1.net_3                              1.20894
xu1.sel1_n                                 1.8
xu1.net_0                                  1.8
xu1.net_2                                  1.8
vfix_s#branch                                0
vfix_i1#branch                               0
vin#branch                                   0
vdd#branch                         -1.5544e-11

 Reference value :  2.44775e-08
 Reference value :  6.34225e-08
 Reference value :  1.01458e-07
 Reference value :  1.39953e-07
 Reference value :  1.79393e-07
 Reference value :  2.16573e-07
 Reference value :  2.58167e-07
 Reference value :  2.97882e-07
No. of Data Rows : 68032

  Measurements for Transient Analysis

tplh                =  6.43123e-10 targ=  2.46531e-08 trig=  2.40100e-08
tphl                =  1.26036e-09 targ=  9.52904e-08 trig=  9.40300e-08
i_vdd_avg           =  -2.55341e-07 from=  1.00000e-08 to=  3.30002e-07
power_avg_uw        =  4.59615e-01


Total analysis time (seconds) = 4.78607

Total elapsed time (seconds) = 4.870 

Total DRAM available = 16384.000 MB.
DRAM currently available =  119.281 MB.
Maximum ngspice program size =   14.484 MB.
Current ngspice program size =   14.484 MB.

