
Note: No compatibility mode selected!


Circuit: GF180MCU library cell xor2_1 A1_to_Z__A2=0

Doing analysis at TEMP = 125.000000 and TNOM = 27.000000

Using SPARSE 1.3 as Direct Linear Solver

Initial Transient Solution
--------------------------

Node                                   Voltage
----                                   -------
vdd                                       1.62
a1                                           0
a2                                           0
xu1.i                                     1.62
z                                  7.48402e-08
xu1.net_0                          3.46475e-08
xu1.net_2                                 1.62
xu1.net_1                             0.630104
vfix_a2#branch                               0
vin#branch                                   0
vdd#branch                        -2.06716e-11

 Reference value :  5.91265e-08
 Reference value :  1.25821e-07
 Reference value :  1.93582e-07
 Reference value :  2.62145e-07
 Reference value :  3.30370e-07
No. of Data Rows : 68032

  Measurements for Transient Analysis

tplh                =  4.11332e-09 targ=  2.99903e-08 trig=  2.58770e-08
tphl                =  3.71300e-09 targ=  1.03344e-07 trig=  9.96310e-08
i_vdd_avg           =  -2.33626e-07 from=  1.00000e-08 to=  3.30000e-07
power_avg_uw        =  3.78474e-01


Total analysis time (seconds) = 2.8574

Total elapsed time (seconds) = 2.911 

Total DRAM available = 16384.000 MB.
DRAM currently available =   84.156 MB.
Maximum ngspice program size =   13.266 MB.
Current ngspice program size =   13.203 MB.

