
Note: No compatibility mode selected!


Circuit: GF180MCU library cell nand2_1 A1_to_ZN__A2=1

Doing analysis at TEMP = 125.000000 and TNOM = 27.000000

Using SPARSE 1.3 as Direct Linear Solver

Initial Transient Solution
--------------------------

Node                                   Voltage
----                                   -------
vdd                                       1.62
a1                                           0
a2                                        1.62
xu1.net_0                          1.46007e-08
zn                                        1.62
vfix_a2#branch                               0
vin#branch                                   0
vdd#branch                          -2.854e-12

 Reference value :  1.20763e-07
 Reference value :  2.80792e-07
No. of Data Rows : 68032

  Measurements for Transient Analysis

tphl                =  1.60996e-08 targ=  5.25996e-08 trig=  3.65000e-08
tplh                =  2.25738e-08 targ=  1.54074e-07 trig=  1.31500e-07
i_vdd_avg           =  -1.71036e-06 from=  1.00000e-08 to=  3.30002e-07
power_avg_uw        =  2.77078e+00


Total analysis time (seconds) = 1.21159

Total elapsed time (seconds) = 1.270 

Total DRAM available = 16384.000 MB.
DRAM currently available =  131.125 MB.
Maximum ngspice program size =   15.750 MB.
Current ngspice program size =   15.750 MB.

