
Note: No compatibility mode selected!


Circuit: GF180MCU library cell mux2_1 I0_to_Z__I1=0,S=0

Doing analysis at TEMP = 25.000000 and TNOM = 27.000000

Using SPARSE 1.3 as Direct Linear Solver

Initial Transient Solution
--------------------------

Node                                   Voltage
----                                   -------
vdd                                        1.8
i0                                           0
i1                                           0
s                                            0
xu1.int04                                  1.8
z                                  1.07301e-08
xu1.net_1                            0.0222657
xu1.net_3                              1.28381
xu1.sel1_n                                 1.8
xu1.net_0                                  1.8
xu1.net_2                                  1.8
vfix_s#branch                                0
vfix_i1#branch                               0
vin#branch                                   0
vdd#branch                        -1.03345e-11

 Reference value :  4.93025e-08
 Reference value :  1.04773e-07
 Reference value :  1.57053e-07
 Reference value :  2.18078e-07
 Reference value :  2.77262e-07
 Reference value :  3.39387e-07
No. of Data Rows : 68032

  Measurements for Transient Analysis

tplh                =  7.81514e-09 targ=  3.78151e-08 trig=  3.00000e-08
tphl                =  6.27166e-09 targ=  1.18272e-07 trig=  1.12000e-07
i_vdd_avg           =  -2.41075e-06 from=  1.00000e-08 to=  3.30002e-07
power_avg_uw        =  4.33936e+00


Total analysis time (seconds) = 2.13045

Total elapsed time (seconds) = 2.198 

Total DRAM available = 16384.000 MB.
DRAM currently available =  197.438 MB.
Maximum ngspice program size =   13.922 MB.
Current ngspice program size =   13.922 MB.

