
Note: No compatibility mode selected!


Circuit: GF180MCU library cell nor2_4 A1_to_ZN__A2=0

Doing analysis at TEMP = 25.000000 and TNOM = 27.000000

Using SPARSE 1.3 as Direct Linear Solver

Initial Transient Solution
--------------------------

Node                                   Voltage
----                                   -------
vdd                                        1.8
a1                                           0
a2                                           0
zn                                         1.8
xu1.net_0_0                                1.8
xu1.net_0_1                                1.8
xu1.net_0_2                                1.8
xu1.net_0_3                                1.8
vfix_a2#branch                               0
vin#branch                                   0
vdd#branch                        -1.47735e-11

 Reference value :  3.76175e-08
 Reference value :  8.55275e-08
 Reference value :  1.32693e-07
 Reference value :  1.81298e-07
 Reference value :  2.27578e-07
 Reference value :  2.74372e-07
 Reference value :  3.21022e-07
No. of Data Rows : 68032

  Measurements for Transient Analysis

tphl                =  1.53901e-09 targ=  3.15390e-08 trig=  3.00000e-08
tplh                =  3.99510e-09 targ=  1.15995e-07 trig=  1.12000e-07
i_vdd_avg           =  -7.70592e-07 from=  1.00000e-08 to=  3.30002e-07
power_avg_uw        =  1.38707e+00


Total analysis time (seconds) = 4.08944

Total elapsed time (seconds) = 4.156 

Total DRAM available = 16384.000 MB.
DRAM currently available =  171.297 MB.
Maximum ngspice program size =   15.219 MB.
Current ngspice program size =   15.219 MB.

