
Note: No compatibility mode selected!


Circuit: GF180MCU library cell inv_4 I_to_ZN

Doing analysis at TEMP = 25.000000 and TNOM = 27.000000

Using SPARSE 1.3 as Direct Linear Solver

Initial Transient Solution
--------------------------

Node                                   Voltage
----                                   -------
vdd                                        1.8
i                                            0
zn                                         1.8
vin#branch                                   0
vdd#branch                         -7.3721e-12

 Reference value :  6.77125e-08
 Reference value :  1.58440e-07
 Reference value :  2.45278e-07
 Reference value :  3.35890e-07
No. of Data Rows : 68036

  Measurements for Transient Analysis

tphl                =  4.70887e-10 targ=  2.44809e-08 trig=  2.40100e-08
tplh                =  1.11758e-09 targ=  9.51476e-08 trig=  9.40300e-08
i_vdd_avg           =  -1.48710e-06 from=  1.00000e-08 to=  3.30000e-07
power_avg_uw        =  2.67678e+00


Total analysis time (seconds) = 2.39137

Total elapsed time (seconds) = 2.455 

Total DRAM available = 16384.000 MB.
DRAM currently available =  101.297 MB.
Maximum ngspice program size =   15.109 MB.
Current ngspice program size =   15.109 MB.

