
Note: No compatibility mode selected!


Circuit: GF180MCU library cell oai21_4 A1_to_ZN__A2=0,B=1

Doing analysis at TEMP = 125.000000 and TNOM = 27.000000

Using SPARSE 1.3 as Direct Linear Solver

Initial Transient Solution
--------------------------

Node                                   Voltage
----                                   -------
vdd                                       1.62
a1                                           0
a2                                           0
b                                         1.62
zn                                        1.62
xu1.net_0                          2.92015e-08
xu1.net_1_0                               1.62
xu1.net_1_1                               1.62
xu1.net_1_2                               1.62
xu1.net_1_3                               1.62
vfix_b#branch                                0
vfix_a2#branch                               0
vin#branch                                   0
vdd#branch                         -2.2832e-11

 Reference value :  2.25664e-08
 Reference value :  5.09225e-08
 Reference value :  8.09875e-08
 Reference value :  1.09683e-07
 Reference value :  1.38498e-07
 Reference value :  1.67493e-07
 Reference value :  1.96263e-07
 Reference value :  2.26798e-07
 Reference value :  2.57542e-07
 Reference value :  2.89007e-07
 Reference value :  3.19247e-07
No. of Data Rows : 68032

  Measurements for Transient Analysis

tphl                =  2.01193e-10 targ=  2.42112e-08 trig=  2.40100e-08
tplh                =  6.31576e-10 targ=  9.46616e-08 trig=  9.40300e-08
i_vdd_avg           =  -1.17093e-07 from=  1.00000e-08 to=  3.30002e-07
power_avg_uw        =  1.89691e-01


Total analysis time (seconds) = 6.49693

Total elapsed time (seconds) = 6.559 

Total DRAM available = 16384.000 MB.
DRAM currently available =  130.062 MB.
Maximum ngspice program size =   15.469 MB.
Current ngspice program size =   15.469 MB.

