
Note: No compatibility mode selected!


Circuit: GF180MCU library cell oai21_4 A1_to_ZN__A2=0,B=1

Doing analysis at TEMP = 125.000000 and TNOM = 27.000000

Using SPARSE 1.3 as Direct Linear Solver

Initial Transient Solution
--------------------------

Node                                   Voltage
----                                   -------
vdd                                       1.62
a1                                           0
a2                                           0
b                                         1.62
zn                                        1.62
xu1.net_0                          2.92015e-08
xu1.net_1_0                               1.62
xu1.net_1_1                               1.62
xu1.net_1_2                               1.62
xu1.net_1_3                               1.62
vfix_b#branch                                0
vfix_a2#branch                               0
vin#branch                                   0
vdd#branch                         -2.2832e-11

 Reference value :  2.50225e-08
 Reference value :  5.53625e-08
 Reference value :  8.68175e-08
 Reference value :  1.16843e-07
 Reference value :  1.46428e-07
 Reference value :  1.75698e-07
 Reference value :  2.06653e-07
 Reference value :  2.33413e-07
 Reference value :  2.63907e-07
 Reference value :  2.95342e-07
 Reference value :  3.26932e-07
No. of Data Rows : 68032

  Measurements for Transient Analysis

tphl                =  8.78818e-10 targ=  3.73788e-08 trig=  3.65000e-08
tplh                =  4.60732e-09 targ=  1.36107e-07 trig=  1.31500e-07
i_vdd_avg           =  -1.04260e-07 from=  1.00000e-08 to=  3.30002e-07
power_avg_uw        =  1.68901e-01


Total analysis time (seconds) = 4.26334

Total elapsed time (seconds) = 4.321 

Total DRAM available = 16384.000 MB.
DRAM currently available =  251.016 MB.
Maximum ngspice program size =   14.109 MB.
Current ngspice program size =   14.109 MB.

