
Note: No compatibility mode selected!


Circuit: GF180MCU library cell oai21_1 A1_to_ZN__A2=0,B=1

Doing analysis at TEMP = 25.000000 and TNOM = 27.000000

Using SPARSE 1.3 as Direct Linear Solver

Initial Transient Solution
--------------------------

Node                                   Voltage
----                                   -------
vdd                                        1.8
a1                                           0
a2                                           0
b                                          1.8
zn                                         1.8
xu1.net_0                          3.73248e-10
xu1.net_1                                  1.8
vfix_b#branch                                0
vfix_a2#branch                               0
vin#branch                                   0
vdd#branch                        -3.68605e-12

 Reference value :  7.96175e-08
 Reference value :  1.81228e-07
 Reference value :  2.81192e-07
No. of Data Rows : 68032

  Measurements for Transient Analysis

tphl                =  2.54143e-09 targ=  2.65514e-08 trig=  2.40100e-08
tplh                =  7.03561e-09 targ=  1.01066e-07 trig=  9.40300e-08
i_vdd_avg           =  -1.13938e-06 from=  1.00000e-08 to=  3.30002e-07
power_avg_uw        =  2.05088e+00


Total analysis time (seconds) = 1.76158

Total elapsed time (seconds) = 1.826 

Total DRAM available = 16384.000 MB.
DRAM currently available =  100.375 MB.
Maximum ngspice program size =   15.297 MB.
Current ngspice program size =   15.297 MB.

