
Note: No compatibility mode selected!


Circuit: GF180MCU library cell nor2_1 A1_to_ZN__A2=0

Doing analysis at TEMP = 25.000000 and TNOM = 27.000000

Using SPARSE 1.3 as Direct Linear Solver

Initial Transient Solution
--------------------------

Node                                   Voltage
----                                   -------
vdd                                        1.8
a1                                           0
a2                                           0
zn                                         1.8
xu1.net_0                                  1.8
vfix_a2#branch                               0
vin#branch                                   0
vdd#branch                        -3.69337e-12

 Reference value :  1.36280e-07
 Reference value :  2.98349e-07
No. of Data Rows : 68032

  Measurements for Transient Analysis

tphl                =  2.37371e-10 targ=  2.51429e-08 trig=  2.49055e-08
tplh                =  5.98076e-10 targ=  9.73146e-08 trig=  9.67165e-08
i_vdd_avg           =  -2.71915e-08 from=  1.00000e-08 to=  3.30004e-07
power_avg_uw        =  4.89448e-02


Total analysis time (seconds) = 0.645854

Total elapsed time (seconds) = 0.708 

Total DRAM available = 16384.000 MB.
DRAM currently available =  105.141 MB.
Maximum ngspice program size =   14.688 MB.
Current ngspice program size =   14.688 MB.

