
Note: No compatibility mode selected!


Circuit: GF180MCU library cell nor2_1 A1_to_ZN__A2=0

Doing analysis at TEMP = 25.000000 and TNOM = 27.000000

Using SPARSE 1.3 as Direct Linear Solver

Initial Transient Solution
--------------------------

Node                                   Voltage
----                                   -------
vdd                                        1.8
a1                                           0
a2                                           0
zn                                         1.8
xu1.net_0                                  1.8
vfix_a2#branch                               0
vin#branch                                   0
vdd#branch                        -3.69337e-12

 Reference value :  1.20378e-07
 Reference value :  2.76327e-07
No. of Data Rows : 68032

  Measurements for Transient Analysis

tphl                =  4.74853e-09 targ=  3.47485e-08 trig=  3.00000e-08
tplh                =  1.01678e-08 targ=  1.22168e-07 trig=  1.12000e-07
i_vdd_avg           =  -1.13882e-06 from=  1.00000e-08 to=  3.30002e-07
power_avg_uw        =  2.04988e+00


Total analysis time (seconds) = 0.928219

Total elapsed time (seconds) = 0.986 

Total DRAM available = 16384.000 MB.
DRAM currently available =   88.469 MB.
Maximum ngspice program size =   13.000 MB.
Current ngspice program size =   12.766 MB.

