
Note: No compatibility mode selected!


Circuit: GF180MCU library cell xor2_1 A1_to_Z__A2=0

Doing analysis at TEMP = 25.000000 and TNOM = 27.000000

Using SPARSE 1.3 as Direct Linear Solver

Initial Transient Solution
--------------------------

Node                                   Voltage
----                                   -------
vdd                                        1.8
a1                                           0
a2                                           0
xu1.i                                      1.8
z                                   3.8406e-08
xu1.net_0                          3.53935e-09
xu1.net_2                                  1.8
xu1.net_1                             0.749065
vfix_a2#branch                               0
vin#branch                                   0
vdd#branch                         -1.0797e-11

 Reference value :  5.25335e-08
 Reference value :  1.21595e-07
 Reference value :  1.89749e-07
 Reference value :  2.56533e-07
 Reference value :  3.25334e-07
No. of Data Rows : 68032

  Measurements for Transient Analysis

tplh                =  1.86009e-09 targ=  2.67656e-08 trig=  2.49055e-08
tphl                =  1.61138e-09 targ=  9.83279e-08 trig=  9.67165e-08
i_vdd_avg           =  -2.79705e-07 from=  1.00000e-08 to=  3.30004e-07
power_avg_uw        =  5.03469e-01


Total analysis time (seconds) = 2.78538

Total elapsed time (seconds) = 2.851 

Total DRAM available = 16384.000 MB.
DRAM currently available =  100.031 MB.
Maximum ngspice program size =   14.297 MB.
Current ngspice program size =   14.297 MB.

