
Note: No compatibility mode selected!


Circuit: GF180MCU library cell oai21_1 A1_to_ZN__A2=0,B=1

Doing analysis at TEMP = -40.000000 and TNOM = 27.000000

Using SPARSE 1.3 as Direct Linear Solver

Initial Transient Solution
--------------------------

Node                                   Voltage
----                                   -------
vdd                                       1.98
a1                                           0
a2                                           0
b                                         1.98
zn                                        1.98
xu1.net_0                          1.57615e-11
xu1.net_1                                 1.98
vfix_b#branch                                0
vfix_a2#branch                               0
vin#branch                                   0
vdd#branch                        -3.98503e-12

 Reference value :  7.58255e-08
 Reference value :  1.82089e-07
 Reference value :  2.82458e-07
No. of Data Rows : 68034

  Measurements for Transient Analysis

tphl                =  1.76691e-09 targ=  2.62834e-08 trig=  2.45165e-08
tplh                =  4.14405e-09 targ=  9.96936e-08 trig=  9.55495e-08
i_vdd_avg           =  -1.50887e-06 from=  1.00000e-08 to=  3.30003e-07
power_avg_uw        =  2.98757e+00


Total analysis time (seconds) = 1.83465

Total elapsed time (seconds) = 1.890 

Total DRAM available = 16384.000 MB.
DRAM currently available =  119.719 MB.
Maximum ngspice program size =   14.609 MB.
Current ngspice program size =   14.609 MB.

