
Note: No compatibility mode selected!


Circuit: GF180MCU library cell inv_4 I_to_ZN

Doing analysis at TEMP = 25.000000 and TNOM = 27.000000

Using SPARSE 1.3 as Direct Linear Solver

Initial Transient Solution
--------------------------

Node                                   Voltage
----                                   -------
vdd                                        1.8
i                                            0
zn                                         1.8
vin#branch                                   0
vdd#branch                         -7.3721e-12

 Reference value :  7.44725e-08
 Reference value :  1.67553e-07
 Reference value :  2.53627e-07
No. of Data Rows : 68032

  Measurements for Transient Analysis

tphl                =  5.85861e-09 targ=  3.58586e-08 trig=  3.00000e-08
tplh                =  1.04831e-08 targ=  1.22483e-07 trig=  1.12000e-07
i_vdd_avg           =  -9.36772e-06 from=  1.00000e-08 to=  3.30002e-07
power_avg_uw        =  1.68619e+01


Total analysis time (seconds) = 2.14981

Total elapsed time (seconds) = 2.219 

Total DRAM available = 16384.000 MB.
DRAM currently available =  101.297 MB.
Maximum ngspice program size =   16.188 MB.
Current ngspice program size =   16.188 MB.

