
Note: No compatibility mode selected!


Circuit: GF180MCU library cell nand2_4 A1_to_ZN__A2=1

Doing analysis at TEMP = -40.000000 and TNOM = 27.000000

Using SPARSE 1.3 as Direct Linear Solver

Initial Transient Solution
--------------------------

Node                                   Voltage
----                                   -------
vdd                                       1.98
a1                                           0
a2                                        1.98
xu1.net_0_0                        7.88078e-12
zn                                        1.98
xu1.net_0_1                        7.88077e-12
xu1.net_0_2                        7.88078e-12
xu1.net_0_3                        7.88077e-12
vfix_a2#branch                               0
vin#branch                                   0
vdd#branch                        -7.97006e-12

 Reference value :  3.94355e-08
 Reference value :  8.51055e-08
 Reference value :  1.36694e-07
 Reference value :  1.87906e-07
 Reference value :  2.32321e-07
 Reference value :  2.82288e-07
 Reference value :  3.30418e-07
No. of Data Rows : 68034

  Measurements for Transient Analysis

tphl                =  6.46187e-10 targ=  2.51627e-08 trig=  2.45165e-08
tplh                =  8.89816e-10 targ=  9.64393e-08 trig=  9.55495e-08
i_vdd_avg           =  -1.71886e-06 from=  1.00000e-08 to=  3.30003e-07
power_avg_uw        =  3.40333e+00


Total analysis time (seconds) = 3.30885

Total elapsed time (seconds) = 3.364 

Total DRAM available = 16384.000 MB.
DRAM currently available =  153.891 MB.
Maximum ngspice program size =   13.688 MB.
Current ngspice program size =   13.688 MB.

