
Note: No compatibility mode selected!


Circuit: GF180MCU library cell mux2_4 I0_to_Z__I1=0,S=0

Doing analysis at TEMP = 125.000000 and TNOM = 27.000000

Using SPARSE 1.3 as Direct Linear Solver

Initial Transient Solution
--------------------------

Node                                   Voltage
----                                   -------
vdd                                       1.62
i0                                           0
i1                                           0
s                                            0
xu1.int04                                 1.62
z                                  2.06213e-08
xu1.net_1                            0.0350895
xu1.net_3                              1.11497
xu1.sel1_n                                1.62
xu1.net_0                                 1.62
xu1.net_2                                 1.62
vfix_s#branch                                0
vfix_i1#branch                               0
vin#branch                                   0
vdd#branch                        -1.66883e-11

 Reference value :  2.93465e-08
 Reference value :  6.67765e-08
 Reference value :  1.07036e-07
 Reference value :  1.44936e-07
 Reference value :  1.83941e-07
 Reference value :  2.21517e-07
 Reference value :  2.60421e-07
 Reference value :  3.00145e-07
 Reference value :  3.37530e-07
No. of Data Rows : 68032

  Measurements for Transient Analysis

tplh                =  4.67742e-09 targ=  3.05544e-08 trig=  2.58770e-08
tphl                =  5.69226e-09 targ=  1.05323e-07 trig=  9.96310e-08
i_vdd_avg           =  -1.40398e-06 from=  1.00000e-08 to=  3.30000e-07
power_avg_uw        =  2.27445e+00


Total analysis time (seconds) = 4.86846

Total elapsed time (seconds) = 4.931 

Total DRAM available = 16384.000 MB.
DRAM currently available =  105.078 MB.
Maximum ngspice program size =   15.984 MB.
Current ngspice program size =   15.984 MB.

