
Note: No compatibility mode selected!


Circuit: GF180MCU library cell mux2_4 I0_to_Z__I1=0,S=0

Doing analysis at TEMP = -40.000000 and TNOM = 27.000000

Using SPARSE 1.3 as Direct Linear Solver

Initial Transient Solution
--------------------------

Node                                   Voltage
----                                   -------
vdd                                       1.98
i0                                           0
i1                                           0
s                                            0
xu1.int04                                 1.98
z                                  6.60779e-09
xu1.net_1                           0.00081994
xu1.net_3                              1.35708
xu1.sel1_n                                1.98
xu1.net_0                                 1.98
xu1.net_2                                 1.98
vfix_s#branch                                0
vfix_i1#branch                               0
vin#branch                                   0
vdd#branch                         -1.7145e-11

 Reference value :  2.99096e-08
 Reference value :  7.04296e-08
 Reference value :  1.09132e-07
 Reference value :  1.49282e-07
 Reference value :  1.89090e-07
 Reference value :  2.27315e-07
 Reference value :  2.65497e-07
 Reference value :  3.03972e-07
No. of Data Rows : 68035

  Measurements for Transient Analysis

tplh                =  4.27722e-09 targ=  2.82872e-08 trig=  2.40100e-08
tphl                =  2.60313e-09 targ=  9.66331e-08 trig=  9.40300e-08
i_vdd_avg           =  -1.20353e-05 from=  1.00000e-08 to=  3.30002e-07
power_avg_uw        =  2.38299e+01


Total analysis time (seconds) = 4.77866

Total elapsed time (seconds) = 4.839 

Total DRAM available = 16384.000 MB.
DRAM currently available =   98.750 MB.
Maximum ngspice program size =   12.984 MB.
Current ngspice program size =   12.828 MB.

