
Note: No compatibility mode selected!


Circuit: GF180MCU library cell mux2_4 I0_to_Z__I1=0,S=0

Doing analysis at TEMP = -40.000000 and TNOM = 27.000000

Using SPARSE 1.3 as Direct Linear Solver

Initial Transient Solution
--------------------------

Node                                   Voltage
----                                   -------
vdd                                       1.98
i0                                           0
i1                                           0
s                                            0
xu1.int04                                 1.98
z                                  6.60779e-09
xu1.net_1                           0.00081994
xu1.net_3                              1.35708
xu1.sel1_n                                1.98
xu1.net_0                                 1.98
xu1.net_2                                 1.98
vfix_s#branch                                0
vfix_i1#branch                               0
vin#branch                                   0
vdd#branch                         -1.7145e-11

 Reference value :  3.05096e-08
 Reference value :  7.08446e-08
 Reference value :  1.08387e-07
 Reference value :  1.46112e-07
 Reference value :  1.83282e-07
 Reference value :  2.22225e-07
 Reference value :  2.60812e-07
 Reference value :  3.01657e-07
No. of Data Rows : 68035

  Measurements for Transient Analysis

tplh                =  3.29798e-10 targ=  2.43398e-08 trig=  2.40100e-08
tphl                =  5.77649e-10 targ=  9.46076e-08 trig=  9.40300e-08
i_vdd_avg           =  -3.19486e-07 from=  1.00000e-08 to=  3.30002e-07
power_avg_uw        =  6.32583e-01


Total analysis time (seconds) = 4.80238

Total elapsed time (seconds) = 4.874 

Total DRAM available = 16384.000 MB.
DRAM currently available =  138.406 MB.
Maximum ngspice program size =   13.812 MB.
Current ngspice program size =   13.812 MB.

