
Note: No compatibility mode selected!


Circuit: GF180MCU library cell nand2_4 A1_to_ZN__A2=1

Doing analysis at TEMP = -40.000000 and TNOM = 27.000000

Using SPARSE 1.3 as Direct Linear Solver

Initial Transient Solution
--------------------------

Node                                   Voltage
----                                   -------
vdd                                       1.98
a1                                           0
a2                                        1.98
xu1.net_0_0                        7.88078e-12
zn                                        1.98
xu1.net_0_1                        7.88077e-12
xu1.net_0_2                        7.88078e-12
xu1.net_0_3                        7.88077e-12
vfix_a2#branch                               0
vin#branch                                   0
vdd#branch                        -7.97006e-12

 Reference value :  3.87225e-08
 Reference value :  8.95025e-08
 Reference value :  1.32943e-07
 Reference value :  1.81708e-07
 Reference value :  2.31323e-07
 Reference value :  2.80787e-07
 Reference value :  3.27847e-07
No. of Data Rows : 68032

  Measurements for Transient Analysis

tphl                =  4.07775e-09 targ=  3.14778e-08 trig=  2.74000e-08
tplh                =  5.66755e-09 targ=  1.09868e-07 trig=  1.04200e-07
i_vdd_avg           =  -1.08561e-05 from=  1.00000e-08 to=  3.30002e-07
power_avg_uw        =  2.14950e+01


Total analysis time (seconds) = 3.07517

Total elapsed time (seconds) = 3.132 

Total DRAM available = 16384.000 MB.
DRAM currently available =  153.891 MB.
Maximum ngspice program size =   12.984 MB.
Current ngspice program size =   12.984 MB.

