
Note: No compatibility mode selected!


Circuit: GF180MCU library cell inv_4 I_to_ZN

Doing analysis at TEMP = 25.000000 and TNOM = 27.000000

Using SPARSE 1.3 as Direct Linear Solver

Initial Transient Solution
--------------------------

Node                                   Voltage
----                                   -------
vdd                                        1.8
i                                            0
zn                                         1.8
vin#branch                                   0
vdd#branch                         -7.3721e-12

 Reference value :  7.18775e-08
 Reference value :  1.64428e-07
 Reference value :  2.58042e-07
No. of Data Rows : 68032

  Measurements for Transient Analysis

tphl                =  4.27667e-11 targ=  2.40528e-08 trig=  2.40100e-08
tplh                =  7.45129e-11 targ=  9.41045e-08 trig=  9.40300e-08
i_vdd_avg           =  -8.67154e-08 from=  1.00000e-08 to=  3.30002e-07
power_avg_uw        =  1.56088e-01


Total analysis time (seconds) = 2.243

Total elapsed time (seconds) = 2.296 

Total DRAM available = 16384.000 MB.
DRAM currently available =  101.297 MB.
Maximum ngspice program size =   12.828 MB.
Current ngspice program size =   12.828 MB.

