
Note: No compatibility mode selected!


Circuit: GF180MCU library cell xor2_4 A1_to_Z__A2=0

Doing analysis at TEMP = 25.000000 and TNOM = 27.000000

Using SPARSE 1.3 as Direct Linear Solver

Initial Transient Solution
--------------------------

Node                                   Voltage
----                                   -------
vdd                                        1.8
a1                                           0
a2                                           0
xu1.net_2                            0.0222657
xu1.i                                      1.8
xu1.net_0                          3.73248e-10
xu1.z_neg                                  1.8
z                                  1.07301e-08
xu1.net_1                                  1.8
vfix_a2#branch                               0
vin#branch                                   0
vdd#branch                        -1.31738e-11

 Reference value :  3.20725e-08
 Reference value :  7.50025e-08
 Reference value :  1.16103e-07
 Reference value :  1.58393e-07
 Reference value :  2.00428e-07
 Reference value :  2.40908e-07
 Reference value :  2.82282e-07
 Reference value :  3.24102e-07
No. of Data Rows : 68032

  Measurements for Transient Analysis

tplh                =  2.94554e-09 targ=  3.29455e-08 trig=  3.00000e-08
tphl                =  4.85384e-09 targ=  1.16854e-07 trig=  1.12000e-07
i_vdd_avg           =  -1.62470e-06 from=  1.00000e-08 to=  3.30002e-07
power_avg_uw        =  2.92446e+00


Total analysis time (seconds) = 4.70083

Total elapsed time (seconds) = 4.766 

Total DRAM available = 16384.000 MB.
DRAM currently available =  152.641 MB.
Maximum ngspice program size =   13.234 MB.
Current ngspice program size =   13.234 MB.

