
Note: No compatibility mode selected!


Circuit: GF180MCU library cell xor2_1 A1_to_Z__A2=0

Doing analysis at TEMP = 125.000000 and TNOM = 27.000000

Using SPARSE 1.3 as Direct Linear Solver

Initial Transient Solution
--------------------------

Node                                   Voltage
----                                   -------
vdd                                       1.62
a1                                           0
a2                                           0
xu1.i                                     1.62
z                                  7.48402e-08
xu1.net_0                          3.46475e-08
xu1.net_2                                 1.62
xu1.net_1                             0.630104
vfix_a2#branch                               0
vin#branch                                   0
vdd#branch                        -2.06716e-11

 Reference value :  5.20775e-08
 Reference value :  1.24653e-07
 Reference value :  1.95638e-07
 Reference value :  2.64422e-07
 Reference value :  3.32457e-07
No. of Data Rows : 68032

  Measurements for Transient Analysis

tplh                =  1.53272e-08 targ=  3.93372e-08 trig=  2.40100e-08
tphl                =  5.06109e-09 targ=  9.90911e-08 trig=  9.40300e-08
i_vdd_avg           =  -9.70774e-07 from=  1.00000e-08 to=  3.30002e-07
power_avg_uw        =  1.57265e+00


Total analysis time (seconds) = 2.78608

Total elapsed time (seconds) = 2.852 

Total DRAM available = 16384.000 MB.
DRAM currently available =   99.844 MB.
Maximum ngspice program size =   16.109 MB.
Current ngspice program size =   16.109 MB.

