
Note: No compatibility mode selected!


Circuit: GF180MCU library cell nor2_4 A1_to_ZN__A2=0

Doing analysis at TEMP = -40.000000 and TNOM = 27.000000

Using SPARSE 1.3 as Direct Linear Solver

Initial Transient Solution
--------------------------

Node                                   Voltage
----                                   -------
vdd                                       1.98
a1                                           0
a2                                           0
zn                                        1.98
xu1.net_0_0                               1.98
xu1.net_0_1                               1.98
xu1.net_0_2                               1.98
xu1.net_0_3                               1.98
vfix_a2#branch                               0
vin#branch                                   0
vdd#branch                        -1.59433e-11

 Reference value :  3.80555e-08
 Reference value :  8.41255e-08
 Reference value :  1.36144e-07
 Reference value :  1.83949e-07
 Reference value :  2.29706e-07
 Reference value :  2.79038e-07
 Reference value :  3.27013e-07
No. of Data Rows : 68034

  Measurements for Transient Analysis

tphl                =  4.23189e-10 targ=  2.49397e-08 trig=  2.45165e-08
tplh                =  8.80461e-10 targ=  9.64300e-08 trig=  9.55495e-08
i_vdd_avg           =  -9.89219e-07 from=  1.00000e-08 to=  3.30003e-07
power_avg_uw        =  1.95865e+00


Total analysis time (seconds) = 4.06845

Total elapsed time (seconds) = 4.126 

Total DRAM available = 16384.000 MB.
DRAM currently available =  119.359 MB.
Maximum ngspice program size =   12.812 MB.
Current ngspice program size =   12.719 MB.

