
Note: No compatibility mode selected!


Circuit: GF180MCU library cell nand3_4 A1_to_ZN__A2=1,A3=1

Doing analysis at TEMP = 125.000000 and TNOM = 27.000000

Using SPARSE 1.3 as Direct Linear Solver

Initial Transient Solution
--------------------------

Node                                   Voltage
----                                   -------
vdd                                       1.62
a1                                           0
a2                                        1.62
a3                                        1.62
xu1.net_1_3                        1.46007e-08
xu1.net_0                          2.92015e-08
xu1.net_1_2                        1.46007e-08
xu1.net_1_1                        1.46007e-08
xu1.net_1_0                        1.46007e-08
xu1.net_0_0                        2.92015e-08
zn                                        1.62
vfix_a3#branch                               0
vfix_a2#branch                               0
vin#branch                                   0
vdd#branch                         -1.1416e-11

 Reference value :  2.72575e-08
 Reference value :  5.77425e-08
 Reference value :  8.52125e-08
 Reference value :  1.16661e-07
 Reference value :  1.50096e-07
 Reference value :  1.85198e-07
 Reference value :  2.21088e-07
 Reference value :  2.54851e-07
 Reference value :  2.91431e-07
 Reference value :  3.25216e-07
No. of Data Rows : 68034

  Measurements for Transient Analysis

tphl                =  1.26123e-08 targ=  3.66223e-08 trig=  2.40100e-08
tplh                =  1.45570e-08 targ=  1.08587e-07 trig=  9.40300e-08
i_vdd_avg           =  -6.18783e-06 from=  1.00000e-08 to=  3.30001e-07
power_avg_uw        =  1.00243e+01


Total analysis time (seconds) = 2.92279

Total elapsed time (seconds) = 2.991 

Total DRAM available = 16384.000 MB.
DRAM currently available =  239.297 MB.
Maximum ngspice program size =   13.000 MB.
Current ngspice program size =   13.000 MB.

