
Note: No compatibility mode selected!


Circuit: GF180MCU library cell aoi21_4 A1_to_ZN__A2=1,B=0

Doing analysis at TEMP = -40.000000 and TNOM = 27.000000

Using SPARSE 1.3 as Direct Linear Solver

Initial Transient Solution
--------------------------

Node                                   Voltage
----                                   -------
vdd                                       1.98
a1                                           0
a2                                        1.98
b                                            0
xu1.net_0_0                        7.88074e-12
zn                                        1.98
xu1.net_0_1                        7.88076e-12
xu1.net_0_2                        7.88074e-12
xu1.net_0_3                        7.88076e-12
xu1.net_1                                 1.98
vfix_b#branch                                0
vfix_a2#branch                               0
vin#branch                                   0
vdd#branch                        -1.59439e-11

 Reference value :  2.15414e-08
 Reference value :  5.37455e-08
 Reference value :  8.38705e-08
 Reference value :  1.16729e-07
 Reference value :  1.47729e-07
 Reference value :  1.75129e-07
 Reference value :  2.05641e-07
 Reference value :  2.36286e-07
 Reference value :  2.68118e-07
 Reference value :  2.97693e-07
 Reference value :  3.26413e-07
No. of Data Rows : 68034

  Measurements for Transient Analysis

tphl                =  8.15443e-11 targ=  2.45980e-08 trig=  2.45165e-08
tplh                =  2.75519e-10 targ=  9.58250e-08 trig=  9.55495e-08
i_vdd_avg           =  -1.33355e-07 from=  1.00000e-08 to=  3.30003e-07
power_avg_uw        =  2.64044e-01


Total analysis time (seconds) = 6.26295

Total elapsed time (seconds) = 6.338 

Total DRAM available = 16384.000 MB.
DRAM currently available =  130.047 MB.
Maximum ngspice program size =   12.812 MB.
Current ngspice program size =   12.688 MB.

