
Note: No compatibility mode selected!


Circuit: GF180MCU library cell mux2_4 I0_to_Z__I1=0,S=0

Doing analysis at TEMP = -40.000000 and TNOM = 27.000000

Using SPARSE 1.3 as Direct Linear Solver

Initial Transient Solution
--------------------------

Node                                   Voltage
----                                   -------
vdd                                       1.98
i0                                           0
i1                                           0
s                                            0
xu1.int04                                 1.98
z                                  6.60779e-09
xu1.net_1                           0.00081994
xu1.net_3                              1.35708
xu1.sel1_n                                1.98
xu1.net_0                                 1.98
xu1.net_2                                 1.98
vfix_s#branch                                0
vfix_i1#branch                               0
vin#branch                                   0
vdd#branch                         -1.7145e-11

 Reference value :  3.21575e-08
 Reference value :  7.22675e-08
 Reference value :  1.12783e-07
 Reference value :  1.51533e-07
 Reference value :  1.95083e-07
 Reference value :  2.32183e-07
 Reference value :  2.71747e-07
 Reference value :  3.11607e-07
No. of Data Rows : 68032

  Measurements for Transient Analysis

tplh                =  4.61884e-09 targ=  3.20188e-08 trig=  2.74000e-08
tphl                =  3.76593e-09 targ=  1.07966e-07 trig=  1.04200e-07
i_vdd_avg           =  -1.20635e-05 from=  1.00000e-08 to=  3.30002e-07
power_avg_uw        =  2.38857e+01


Total analysis time (seconds) = 4.6005

Total elapsed time (seconds) = 4.663 

Total DRAM available = 16384.000 MB.
DRAM currently available =  146.266 MB.
Maximum ngspice program size =   12.812 MB.
Current ngspice program size =   12.688 MB.

