
Note: No compatibility mode selected!


Circuit: GF180MCU library cell oai21_1 A1_to_ZN__A2=0,B=1

Doing analysis at TEMP = 25.000000 and TNOM = 27.000000

Using SPARSE 1.3 as Direct Linear Solver

Initial Transient Solution
--------------------------

Node                                   Voltage
----                                   -------
vdd                                        1.8
a1                                           0
a2                                           0
b                                          1.8
zn                                         1.8
xu1.net_0                          3.73248e-10
xu1.net_1                                  1.8
vfix_b#branch                                0
vfix_a2#branch                               0
vin#branch                                   0
vdd#branch                        -3.68605e-12

 Reference value :  7.89525e-08
 Reference value :  1.80143e-07
 Reference value :  2.81607e-07
No. of Data Rows : 68032

  Measurements for Transient Analysis

tphl                =  4.80640e-10 targ=  2.44906e-08 trig=  2.40100e-08
tplh                =  1.31822e-09 targ=  9.53482e-08 trig=  9.40300e-08
i_vdd_avg           =  -2.07752e-07 from=  1.00000e-08 to=  3.30002e-07
power_avg_uw        =  3.73953e-01


Total analysis time (seconds) = 1.72525

Total elapsed time (seconds) = 1.787 

Total DRAM available = 16384.000 MB.
DRAM currently available =  100.375 MB.
Maximum ngspice program size =   13.281 MB.
Current ngspice program size =   13.281 MB.

