
Note: No compatibility mode selected!


Circuit: GF180MCU library cell nand3_4 A1_to_ZN__A2=1,A3=1

Doing analysis at TEMP = -40.000000 and TNOM = 27.000000

Using SPARSE 1.3 as Direct Linear Solver

Initial Transient Solution
--------------------------

Node                                   Voltage
----                                   -------
vdd                                       1.98
a1                                           0
a2                                        1.98
a3                                        1.98
xu1.net_1_3                        7.88079e-12
xu1.net_0                          1.57615e-11
xu1.net_1_2                        7.88071e-12
xu1.net_1_1                        7.88079e-12
xu1.net_1_0                        7.88078e-12
xu1.net_0_0                        1.57615e-11
zn                                        1.98
vfix_a3#branch                               0
vfix_a2#branch                               0
vin#branch                                   0
vdd#branch                        -7.97006e-12

 Reference value :  2.34614e-08
 Reference value :  5.28955e-08
 Reference value :  8.28355e-08
 Reference value :  1.13304e-07
 Reference value :  1.44599e-07
 Reference value :  1.76734e-07
 Reference value :  2.07841e-07
 Reference value :  2.38666e-07
 Reference value :  2.68013e-07
 Reference value :  2.96868e-07
 Reference value :  3.28163e-07
No. of Data Rows : 68034

  Measurements for Transient Analysis

tphl                =  1.00861e-10 targ=  2.46174e-08 trig=  2.45165e-08
tplh                =  2.36367e-10 targ=  9.57859e-08 trig=  9.55495e-08
i_vdd_avg           =  -1.28727e-07 from=  1.00000e-08 to=  3.30003e-07
power_avg_uw        =  2.54879e-01


Total analysis time (seconds) = 5.2666

Total elapsed time (seconds) = 5.334 

Total DRAM available = 16384.000 MB.
DRAM currently available =  187.375 MB.
Maximum ngspice program size =   12.812 MB.
Current ngspice program size =   12.688 MB.

