
Note: No compatibility mode selected!


Circuit: GF180MCU library cell xor2_4 A1_to_Z__A2=0

Doing analysis at TEMP = -40.000000 and TNOM = 27.000000

Using SPARSE 1.3 as Direct Linear Solver

Initial Transient Solution
--------------------------

Node                                   Voltage
----                                   -------
vdd                                       1.98
a1                                           0
a2                                           0
xu1.net_2                           0.00394929
xu1.i                                     1.98
xu1.net_0                          1.57615e-11
xu1.z_neg                                 1.98
z                                  6.60779e-09
xu1.net_1                                 1.98
vfix_a2#branch                               0
vin#branch                                   0
vdd#branch                        -1.44208e-11

 Reference value :  3.22525e-08
 Reference value :  7.36075e-08
 Reference value :  1.16688e-07
 Reference value :  1.58538e-07
 Reference value :  1.99328e-07
 Reference value :  2.45233e-07
 Reference value :  2.86012e-07
 Reference value :  3.30582e-07
No. of Data Rows : 68032

  Measurements for Transient Analysis

tplh                =  4.21818e-09 targ=  2.82282e-08 trig=  2.40100e-08
tphl                =  2.58972e-09 targ=  9.66197e-08 trig=  9.40300e-08
i_vdd_avg           =  -1.19938e-05 from=  1.00000e-08 to=  3.30002e-07
power_avg_uw        =  2.37477e+01


Total analysis time (seconds) = 4.61593

Total elapsed time (seconds) = 4.679 

Total DRAM available = 16384.000 MB.
DRAM currently available =  112.922 MB.
Maximum ngspice program size =   15.125 MB.
Current ngspice program size =   15.125 MB.

