
Note: No compatibility mode selected!


Circuit: GF180MCU library cell oai21_4 A1_to_ZN__A2=0,B=1

Doing analysis at TEMP = 25.000000 and TNOM = 27.000000

Using SPARSE 1.3 as Direct Linear Solver

Initial Transient Solution
--------------------------

Node                                   Voltage
----                                   -------
vdd                                        1.8
a1                                           0
a2                                           0
b                                          1.8
zn                                         1.8
xu1.net_0                          3.73248e-10
xu1.net_1_0                                1.8
xu1.net_1_1                                1.8
xu1.net_1_2                                1.8
xu1.net_1_3                                1.8
vfix_b#branch                                0
vfix_a2#branch                               0
vin#branch                                   0
vdd#branch                        -1.47442e-11

 Reference value :  2.17814e-08
 Reference value :  5.28825e-08
 Reference value :  8.44825e-08
 Reference value :  1.16443e-07
 Reference value :  1.45308e-07
 Reference value :  1.74783e-07
 Reference value :  2.06013e-07
 Reference value :  2.36928e-07
 Reference value :  2.64847e-07
 Reference value :  2.94917e-07
 Reference value :  3.24267e-07
No. of Data Rows : 68032

  Measurements for Transient Analysis

tphl                =  1.50292e-09 targ=  3.15029e-08 trig=  3.00000e-08
tplh                =  4.06593e-09 targ=  1.16066e-07 trig=  1.12000e-07
i_vdd_avg           =  -7.15728e-07 from=  1.00000e-08 to=  3.30002e-07
power_avg_uw        =  1.28831e+00


Total analysis time (seconds) = 6.2648

Total elapsed time (seconds) = 6.327 

Total DRAM available = 16384.000 MB.
DRAM currently available =   91.984 MB.
Maximum ngspice program size =   14.250 MB.
Current ngspice program size =   14.250 MB.

