
Note: No compatibility mode selected!


Circuit: GF180MCU library cell nand2_4 A1_to_ZN__A2=1

Doing analysis at TEMP = -40.000000 and TNOM = 27.000000

Using SPARSE 1.3 as Direct Linear Solver

Initial Transient Solution
--------------------------

Node                                   Voltage
----                                   -------
vdd                                       1.98
a1                                           0
a2                                        1.98
xu1.net_0_0                        7.88078e-12
zn                                        1.98
xu1.net_0_1                        7.88077e-12
xu1.net_0_2                        7.88078e-12
xu1.net_0_3                        7.88077e-12
vfix_a2#branch                               0
vin#branch                                   0
vdd#branch                        -7.97006e-12

 Reference value :  3.47911e-08
 Reference value :  7.97561e-08
 Reference value :  1.25760e-07
 Reference value :  1.75035e-07
 Reference value :  2.22366e-07
 Reference value :  2.70250e-07
 Reference value :  3.17915e-07
No. of Data Rows : 68036

  Measurements for Transient Analysis

tphl                =  2.82633e-09 targ=  2.68363e-08 trig=  2.40100e-08
tplh                =  3.88468e-09 targ=  9.79147e-08 trig=  9.40300e-08
i_vdd_avg           =  -1.08315e-05 from=  1.00000e-08 to=  3.30000e-07
power_avg_uw        =  2.14465e+01


Total analysis time (seconds) = 3.45793

Total elapsed time (seconds) = 3.531 

Total DRAM available = 16384.000 MB.
DRAM currently available =  153.891 MB.
Maximum ngspice program size =   14.062 MB.
Current ngspice program size =   14.062 MB.

