
Note: No compatibility mode selected!


Circuit: GF180MCU library cell inv_4 I_to_ZN

Doing analysis at TEMP = -40.000000 and TNOM = 27.000000

Using SPARSE 1.3 as Direct Linear Solver

Initial Transient Solution
--------------------------

Node                                   Voltage
----                                   -------
vdd                                       1.98
i                                            0
zn                                        1.98
vin#branch                                   0
vdd#branch                        -7.97006e-12

 Reference value :  6.08259e-08
 Reference value :  1.54210e-07
 Reference value :  2.45546e-07
No. of Data Rows : 68036

  Measurements for Transient Analysis

tphl                =  1.80730e-09 targ=  2.58173e-08 trig=  2.40100e-08
tplh                =  3.89484e-09 targ=  9.79248e-08 trig=  9.40300e-08
i_vdd_avg           =  -1.17284e-05 from=  1.00000e-08 to=  3.30000e-07
power_avg_uw        =  2.32223e+01


Total analysis time (seconds) = 2.14

Total elapsed time (seconds) = 2.201 

Total DRAM available = 16384.000 MB.
DRAM currently available =  110.156 MB.
Maximum ngspice program size =   16.203 MB.
Current ngspice program size =   16.203 MB.

