
Note: No compatibility mode selected!


Circuit: GF180MCU library cell xor2_1 A1_to_Z__A2=0

Doing analysis at TEMP = -40.000000 and TNOM = 27.000000

Using SPARSE 1.3 as Direct Linear Solver

Initial Transient Solution
--------------------------

Node                                   Voltage
----                                   -------
vdd                                       1.98
a1                                           0
a2                                           0
xu1.i                                     1.98
z                                  2.36761e-08
xu1.net_0                          1.38463e-10
xu1.net_2                                 1.98
xu1.net_1                             0.802295
vfix_a2#branch                               0
vin#branch                                   0
vdd#branch                        -1.15632e-11

 Reference value :  5.68975e-08
 Reference value :  1.25337e-07
 Reference value :  1.93938e-07
 Reference value :  2.63732e-07
 Reference value :  3.36352e-07
No. of Data Rows : 68032

  Measurements for Transient Analysis

tplh                =  3.11179e-10 targ=  2.43212e-08 trig=  2.40100e-08
tphl                =  4.38257e-10 targ=  9.44683e-08 trig=  9.40300e-08
i_vdd_avg           =  -1.48316e-07 from=  1.00000e-08 to=  3.30002e-07
power_avg_uw        =  2.93666e-01


Total analysis time (seconds) = 2.66729

Total elapsed time (seconds) = 2.723 

Total DRAM available = 16384.000 MB.
DRAM currently available =  100.031 MB.
Maximum ngspice program size =   12.641 MB.
Current ngspice program size =   12.391 MB.

