
Note: No compatibility mode selected!


Circuit: GF180MCU library cell nand3_4 A1_to_ZN__A2=1,A3=1

Doing analysis at TEMP = 25.000000 and TNOM = 27.000000

Using SPARSE 1.3 as Direct Linear Solver

Initial Transient Solution
--------------------------

Node                                   Voltage
----                                   -------
vdd                                        1.8
a1                                           0
a2                                         1.8
a3                                         1.8
xu1.net_1_3                        1.86624e-10
xu1.net_0                          3.73248e-10
xu1.net_1_2                        1.86624e-10
xu1.net_1_1                        1.86624e-10
xu1.net_1_0                        1.86624e-10
xu1.net_0_0                        3.73248e-10
zn                                         1.8
vfix_a3#branch                               0
vfix_a2#branch                               0
vin#branch                                   0
vdd#branch                         -7.3721e-12

 Reference value :  2.18714e-08
 Reference value :  5.22075e-08
 Reference value :  8.22325e-08
 Reference value :  1.12702e-07
 Reference value :  1.44647e-07
 Reference value :  1.74397e-07
 Reference value :  2.05133e-07
 Reference value :  2.33743e-07
 Reference value :  2.65687e-07
 Reference value :  2.95977e-07
 Reference value :  3.24637e-07
No. of Data Rows : 68034

  Measurements for Transient Analysis

tphl                =  9.98384e-10 targ=  2.50084e-08 trig=  2.40100e-08
tplh                =  1.14775e-09 targ=  9.51778e-08 trig=  9.40300e-08
i_vdd_avg           =  -1.22109e-06 from=  1.00000e-08 to=  3.30002e-07
power_avg_uw        =  2.19796e+00


Total analysis time (seconds) = 6.27063

Total elapsed time (seconds) = 6.336 

Total DRAM available = 16384.000 MB.
DRAM currently available =  120.297 MB.
Maximum ngspice program size =   14.125 MB.
Current ngspice program size =   14.125 MB.

