
Note: No compatibility mode selected!


Circuit: GF180MCU library cell aoi21_4 A1_to_ZN__A2=1,B=0

Doing analysis at TEMP = -40.000000 and TNOM = 27.000000

Using SPARSE 1.3 as Direct Linear Solver

Initial Transient Solution
--------------------------

Node                                   Voltage
----                                   -------
vdd                                       1.98
a1                                           0
a2                                        1.98
b                                            0
xu1.net_0_0                        7.88074e-12
zn                                        1.98
xu1.net_0_1                        7.88076e-12
xu1.net_0_2                        7.88074e-12
xu1.net_0_3                        7.88076e-12
xu1.net_1                                 1.98
vfix_b#branch                                0
vfix_a2#branch                               0
vin#branch                                   0
vdd#branch                        -1.59439e-11

 Reference value :  2.22414e-08
 Reference value :  5.30405e-08
 Reference value :  8.41805e-08
 Reference value :  1.16344e-07
 Reference value :  1.48584e-07
 Reference value :  1.77739e-07
 Reference value :  2.10116e-07
 Reference value :  2.42056e-07
 Reference value :  2.72578e-07
 Reference value :  3.04768e-07
 Reference value :  3.35233e-07
No. of Data Rows : 68034

  Measurements for Transient Analysis

tphl                =  4.59339e-10 targ=  2.49758e-08 trig=  2.45165e-08
tplh                =  9.00212e-10 targ=  9.64497e-08 trig=  9.55495e-08
i_vdd_avg           =  -1.00141e-06 from=  1.00000e-08 to=  3.30003e-07
power_avg_uw        =  1.98279e+00


Total analysis time (seconds) = 6.00536

Total elapsed time (seconds) = 6.070 

Total DRAM available = 16384.000 MB.
DRAM currently available =  130.047 MB.
Maximum ngspice program size =   14.453 MB.
Current ngspice program size =   14.453 MB.

