
Note: No compatibility mode selected!


Circuit: GF180MCU library cell oai21_4 A1_to_ZN__A2=0,B=1

Doing analysis at TEMP = -40.000000 and TNOM = 27.000000

Using SPARSE 1.3 as Direct Linear Solver

Initial Transient Solution
--------------------------

Node                                   Voltage
----                                   -------
vdd                                       1.98
a1                                           0
a2                                           0
b                                         1.98
zn                                        1.98
xu1.net_0                          1.57614e-11
xu1.net_1_0                               1.98
xu1.net_1_1                               1.98
xu1.net_1_2                               1.98
xu1.net_1_3                               1.98
vfix_b#branch                                0
vfix_a2#branch                               0
vin#branch                                   0
vdd#branch                        -1.59401e-11

 Reference value :  2.30714e-08
 Reference value :  5.30155e-08
 Reference value :  8.35455e-08
 Reference value :  1.13899e-07
 Reference value :  1.43619e-07
 Reference value :  1.75044e-07
 Reference value :  2.06741e-07
 Reference value :  2.35506e-07
 Reference value :  2.67658e-07
 Reference value :  2.99873e-07
 Reference value :  3.30808e-07
No. of Data Rows : 68034

  Measurements for Transient Analysis

tphl                =  1.60375e-09 targ=  2.61202e-08 trig=  2.45165e-08
tplh                =  4.13801e-09 targ=  9.96875e-08 trig=  9.55495e-08
i_vdd_avg           =  -5.41050e-06 from=  1.00000e-08 to=  3.30003e-07
power_avg_uw        =  1.07128e+01


Total analysis time (seconds) = 6.31823

Total elapsed time (seconds) = 6.381 

Total DRAM available = 16384.000 MB.
DRAM currently available =  117.500 MB.
Maximum ngspice program size =   13.312 MB.
Current ngspice program size =   13.062 MB.

