
Note: No compatibility mode selected!


Circuit: GF180MCU library cell oai21_4 A1_to_ZN__A2=0,B=1

Doing analysis at TEMP = 25.000000 and TNOM = 27.000000

Using SPARSE 1.3 as Direct Linear Solver

Initial Transient Solution
--------------------------

Node                                   Voltage
----                                   -------
vdd                                        1.8
a1                                           0
a2                                           0
b                                          1.8
zn                                         1.8
xu1.net_0                          3.73248e-10
xu1.net_1_0                                1.8
xu1.net_1_1                                1.8
xu1.net_1_2                                1.8
xu1.net_1_3                                1.8
vfix_b#branch                                0
vfix_a2#branch                               0
vin#branch                                   0
vdd#branch                        -1.47442e-11

 Reference value :  2.17464e-08
 Reference value :  5.17875e-08
 Reference value :  8.10175e-08
 Reference value :  1.08963e-07
 Reference value :  1.39803e-07
 Reference value :  1.70863e-07
 Reference value :  2.01703e-07
 Reference value :  2.32713e-07
 Reference value :  2.62597e-07
 Reference value :  2.93262e-07
 Reference value :  3.23507e-07
No. of Data Rows : 68032

  Measurements for Transient Analysis

tphl                =  9.16055e-11 targ=  2.41016e-08 trig=  2.40100e-08
tplh                =  2.55544e-10 targ=  9.42855e-08 trig=  9.40300e-08
i_vdd_avg           =  -1.26450e-07 from=  1.00000e-08 to=  3.30002e-07
power_avg_uw        =  2.27609e-01


Total analysis time (seconds) = 6.24332

Total elapsed time (seconds) = 6.311 

Total DRAM available = 16384.000 MB.
DRAM currently available =  105.172 MB.
Maximum ngspice program size =   15.234 MB.
Current ngspice program size =   15.234 MB.

