
Note: No compatibility mode selected!


Circuit: GF180MCU library cell nand3_1 A1_to_ZN__A2=1,A3=1

Doing analysis at TEMP = 25.000000 and TNOM = 27.000000

Using SPARSE 1.3 as Direct Linear Solver

Initial Transient Solution
--------------------------

Node                                   Voltage
----                                   -------
vdd                                        1.8
a1                                           0
a2                                         1.8
a3                                         1.8
xu1.net_1                          1.86624e-10
xu1.net_0                          3.73248e-10
zn                                         1.8
vfix_a3#branch                               0
vfix_a2#branch                               0
vin#branch                                   0
vdd#branch                        -1.84302e-12

 Reference value :  8.51585e-08
 Reference value :  1.90674e-07
 Reference value :  2.92384e-07
No. of Data Rows : 68032

  Measurements for Transient Analysis

tphl                =  3.41361e-10 targ=  2.52469e-08 trig=  2.49055e-08
tplh                =  5.75170e-10 targ=  9.72917e-08 trig=  9.67165e-08
i_vdd_avg           =  -3.30223e-08 from=  1.00000e-08 to=  3.30004e-07
power_avg_uw        =  5.94401e-02


Total analysis time (seconds) = 1.7451

Total elapsed time (seconds) = 1.802 

Total DRAM available = 16384.000 MB.
DRAM currently available =  137.844 MB.
Maximum ngspice program size =   13.516 MB.
Current ngspice program size =   13.438 MB.

