
Note: No compatibility mode selected!


Circuit: GF180MCU library cell xor2_1 A1_to_Z__A2=0

Doing analysis at TEMP = 125.000000 and TNOM = 27.000000

Using SPARSE 1.3 as Direct Linear Solver

Initial Transient Solution
--------------------------

Node                                   Voltage
----                                   -------
vdd                                       1.62
a1                                           0
a2                                           0
xu1.i                                     1.62
z                                  7.48402e-08
xu1.net_0                          3.46475e-08
xu1.net_2                                 1.62
xu1.net_1                             0.630104
vfix_a2#branch                               0
vin#branch                                   0
vdd#branch                        -2.06716e-11

 Reference value :  5.26375e-08
 Reference value :  1.21088e-07
 Reference value :  1.88948e-07
 Reference value :  2.57147e-07
 Reference value :  3.29302e-07
No. of Data Rows : 68032

  Measurements for Transient Analysis

tplh                =  2.42639e-09 targ=  3.89264e-08 trig=  3.65000e-08
tphl                =  7.32764e-09 targ=  1.38828e-07 trig=  1.31500e-07
i_vdd_avg           =  -1.01053e-07 from=  1.00000e-08 to=  3.30002e-07
power_avg_uw        =  1.63707e-01


Total analysis time (seconds) = 2.80768

Total elapsed time (seconds) = 2.871 

Total DRAM available = 16384.000 MB.
DRAM currently available =  137.125 MB.
Maximum ngspice program size =   13.875 MB.
Current ngspice program size =   13.875 MB.

