
Note: No compatibility mode selected!


Circuit: GF180MCU library cell oai21_1 A1_to_ZN__A2=0,B=1

Doing analysis at TEMP = 125.000000 and TNOM = 27.000000

Using SPARSE 1.3 as Direct Linear Solver

Initial Transient Solution
--------------------------

Node                                   Voltage
----                                   -------
vdd                                       1.62
a1                                           0
a2                                           0
b                                         1.62
zn                                        1.62
xu1.net_0                          2.92015e-08
xu1.net_1                                 1.62
vfix_b#branch                                0
vfix_a2#branch                               0
vin#branch                                   0
vdd#branch                        -5.70799e-12

 Reference value :  7.45775e-08
 Reference value :  1.76563e-07
 Reference value :  2.81442e-07
No. of Data Rows : 68032

  Measurements for Transient Analysis

tphl                =  9.71979e-10 targ=  2.49820e-08 trig=  2.40100e-08
tplh                =  2.84901e-09 targ=  9.68790e-08 trig=  9.40300e-08
i_vdd_avg           =  -1.70068e-07 from=  1.00000e-08 to=  3.30002e-07
power_avg_uw        =  2.75510e-01


Total analysis time (seconds) = 1.82893

Total elapsed time (seconds) = 1.903 

Total DRAM available = 16384.000 MB.
DRAM currently available =   95.516 MB.
Maximum ngspice program size =   15.422 MB.
Current ngspice program size =   15.422 MB.

