
Note: No compatibility mode selected!


Circuit: GF180MCU library cell nor2_4 A1_to_ZN__A2=0

Doing analysis at TEMP = 125.000000 and TNOM = 27.000000

Using SPARSE 1.3 as Direct Linear Solver

Initial Transient Solution
--------------------------

Node                                   Voltage
----                                   -------
vdd                                       1.62
a1                                           0
a2                                           0
zn                                        1.62
xu1.net_0_0                               1.62
xu1.net_0_1                               1.62
xu1.net_0_2                               1.62
xu1.net_0_3                               1.62
vfix_a2#branch                               0
vin#branch                                   0
vdd#branch                         -2.2954e-11

 Reference value :  3.51525e-08
 Reference value :  8.16925e-08
 Reference value :  1.22633e-07
 Reference value :  1.71153e-07
 Reference value :  2.20763e-07
 Reference value :  2.65517e-07
 Reference value :  3.11492e-07
No. of Data Rows : 68032

  Measurements for Transient Analysis

tphl                =  1.02725e-08 targ=  4.67725e-08 trig=  3.65000e-08
tplh                =  2.19858e-08 targ=  1.53486e-07 trig=  1.31500e-07
i_vdd_avg           =  -3.49480e-06 from=  1.00000e-08 to=  3.30002e-07
power_avg_uw        =  5.66158e+00


Total analysis time (seconds) = 4.31561

Total elapsed time (seconds) = 4.378 

Total DRAM available = 16384.000 MB.
DRAM currently available =  120.453 MB.
Maximum ngspice program size =   14.188 MB.
Current ngspice program size =   14.188 MB.

