
Note: No compatibility mode selected!


Circuit: GF180MCU library cell inv_1 I_to_ZN

Doing analysis at TEMP = 125.000000 and TNOM = 27.000000

Using SPARSE 1.3 as Direct Linear Solver

Initial Transient Solution
--------------------------

Node                                   Voltage
----                                   -------
vdd                                       1.62
i                                            0
zn                                        1.62
vin#branch                                   0
vdd#branch                          -2.854e-12

 Reference value :  2.11553e-07
No. of Data Rows : 68032

  Measurements for Transient Analysis

tphl                =  1.08531e-10 targ=  2.41185e-08 trig=  2.40100e-08
tplh                =  2.47436e-10 targ=  9.42774e-08 trig=  9.40300e-08
i_vdd_avg           =  -2.93977e-08 from=  1.00000e-08 to=  3.30002e-07
power_avg_uw        =  4.76243e-02


Total analysis time (seconds) = 0.655147

Total elapsed time (seconds) = 0.712 

Total DRAM available = 16384.000 MB.
DRAM currently available =  129.797 MB.
Maximum ngspice program size =   15.875 MB.
Current ngspice program size =   15.875 MB.

