
Note: No compatibility mode selected!


Circuit: GF180MCU library cell nor2_1 A1_to_ZN__A2=0

Doing analysis at TEMP = 125.000000 and TNOM = 27.000000

Using SPARSE 1.3 as Direct Linear Solver

Initial Transient Solution
--------------------------

Node                                   Voltage
----                                   -------
vdd                                       1.62
a1                                           0
a2                                           0
zn                                        1.62
xu1.net_0                                 1.62
vfix_a2#branch                               0
vin#branch                                   0
vdd#branch                        -5.73851e-12

 Reference value :  1.17318e-07
 Reference value :  2.68017e-07
No. of Data Rows : 68032

  Measurements for Transient Analysis

tphl                =  1.48786e-10 targ=  2.41588e-08 trig=  2.40100e-08
tplh                =  5.48100e-10 targ=  9.45781e-08 trig=  9.40300e-08
i_vdd_avg           =  -2.96466e-08 from=  1.00000e-08 to=  3.30002e-07
power_avg_uw        =  4.80274e-02


Total analysis time (seconds) = 0.900917

Total elapsed time (seconds) = 0.964 

Total DRAM available = 16384.000 MB.
DRAM currently available =  119.953 MB.
Maximum ngspice program size =   15.844 MB.
Current ngspice program size =   15.844 MB.

