
Note: No compatibility mode selected!


Circuit: GF180MCU library cell nand3_4 A1_to_ZN__A2=1,A3=1

Doing analysis at TEMP = 125.000000 and TNOM = 27.000000

Using SPARSE 1.3 as Direct Linear Solver

Initial Transient Solution
--------------------------

Node                                   Voltage
----                                   -------
vdd                                       1.62
a1                                           0
a2                                        1.62
a3                                        1.62
xu1.net_1_3                        1.46007e-08
xu1.net_0                          2.92015e-08
xu1.net_1_2                        1.46007e-08
xu1.net_1_1                        1.46007e-08
xu1.net_1_0                        1.46007e-08
xu1.net_0_0                        2.92015e-08
zn                                        1.62
vfix_a3#branch                               0
vfix_a2#branch                               0
vin#branch                                   0
vdd#branch                         -1.1416e-11

 Reference value :  2.91065e-08
 Reference value :  5.60915e-08
 Reference value :  8.59715e-08
 Reference value :  1.19761e-07
 Reference value :  1.52971e-07
 Reference value :  1.87887e-07
 Reference value :  2.22837e-07
 Reference value :  2.55656e-07
 Reference value :  2.90920e-07
 Reference value :  3.24985e-07
No. of Data Rows : 68032

  Measurements for Transient Analysis

tphl                =  2.95953e-09 targ=  2.88365e-08 trig=  2.58770e-08
tplh                =  3.59446e-09 targ=  1.03225e-07 trig=  9.96310e-08
i_vdd_avg           =  -1.01249e-06 from=  1.00000e-08 to=  3.30000e-07
power_avg_uw        =  1.64023e+00


Total analysis time (seconds) = 2.8597

Total elapsed time (seconds) = 2.920 

Total DRAM available = 16384.000 MB.
DRAM currently available =  253.547 MB.
Maximum ngspice program size =   13.391 MB.
Current ngspice program size =   13.391 MB.

