
Note: No compatibility mode selected!


Circuit: GF180MCU library cell nand2_4 A1_to_ZN__A2=1

Doing analysis at TEMP = -40.000000 and TNOM = 27.000000

Using SPARSE 1.3 as Direct Linear Solver

Initial Transient Solution
--------------------------

Node                                   Voltage
----                                   -------
vdd                                       1.98
a1                                           0
a2                                        1.98
xu1.net_0_0                        7.88078e-12
zn                                        1.98
xu1.net_0_1                        7.88077e-12
xu1.net_0_2                        7.88078e-12
xu1.net_0_3                        7.88077e-12
vfix_a2#branch                               0
vin#branch                                   0
vdd#branch                        -7.97006e-12

 Reference value :  3.90211e-08
 Reference value :  8.53611e-08
 Reference value :  1.33930e-07
 Reference value :  1.85462e-07
 Reference value :  2.31962e-07
 Reference value :  2.86380e-07
 Reference value :  3.32005e-07
No. of Data Rows : 68039

  Measurements for Transient Analysis

tphl                =  4.62967e-10 targ=  2.44730e-08 trig=  2.40100e-08
tplh                =  6.32054e-10 targ=  9.46621e-08 trig=  9.40300e-08
i_vdd_avg           =  -1.73483e-06 from=  1.00000e-08 to=  3.30005e-07
power_avg_uw        =  3.43497e+00


Total analysis time (seconds) = 3.44836

Total elapsed time (seconds) = 3.509 

Total DRAM available = 16384.000 MB.
DRAM currently available =  149.156 MB.
Maximum ngspice program size =   13.953 MB.
Current ngspice program size =   13.953 MB.

