
Note: No compatibility mode selected!


Circuit: GF180MCU library cell nand3_1 A1_to_ZN__A2=1,A3=1

Doing analysis at TEMP = -40.000000 and TNOM = 27.000000

Using SPARSE 1.3 as Direct Linear Solver

Initial Transient Solution
--------------------------

Node                                   Voltage
----                                   -------
vdd                                       1.98
a1                                           0
a2                                        1.98
a3                                        1.98
xu1.net_1                          7.88078e-12
xu1.net_0                          1.57614e-11
zn                                        1.98
vfix_a3#branch                               0
vfix_a2#branch                               0
vin#branch                                   0
vdd#branch                        -1.99251e-12

 Reference value :  7.80825e-08
 Reference value :  1.77607e-07
 Reference value :  2.85357e-07
No. of Data Rows : 68034

  Measurements for Transient Analysis

tphl                =  7.57034e-11 targ=  2.40857e-08 trig=  2.40100e-08
tplh                =  8.14924e-11 targ=  9.41115e-08 trig=  9.40300e-08
i_vdd_avg           =  -4.34484e-08 from=  1.00000e-08 to=  3.30002e-07
power_avg_uw        =  8.60278e-02


Total analysis time (seconds) = 1.82551

Total elapsed time (seconds) = 1.891 

Total DRAM available = 16384.000 MB.
DRAM currently available =  101.438 MB.
Maximum ngspice program size =   13.969 MB.
Current ngspice program size =   13.969 MB.

