
Note: No compatibility mode selected!


Circuit: GF180MCU library cell nand3_4 A1_to_ZN__A2=1,A3=1

Doing analysis at TEMP = 25.000000 and TNOM = 27.000000

Using SPARSE 1.3 as Direct Linear Solver

Initial Transient Solution
--------------------------

Node                                   Voltage
----                                   -------
vdd                                        1.8
a1                                           0
a2                                         1.8
a3                                         1.8
xu1.net_1_3                        1.86624e-10
xu1.net_0                          3.73248e-10
xu1.net_1_2                        1.86624e-10
xu1.net_1_1                        1.86624e-10
xu1.net_1_0                        1.86624e-10
xu1.net_0_0                        3.73248e-10
zn                                         1.8
vfix_a3#branch                               0
vfix_a2#branch                               0
vin#branch                                   0
vdd#branch                         -7.3721e-12

 Reference value :  2.22764e-08
 Reference value :  5.33775e-08
 Reference value :  8.22775e-08
 Reference value :  1.13246e-07
 Reference value :  1.44336e-07
 Reference value :  1.74856e-07
 Reference value :  2.02668e-07
 Reference value :  2.32343e-07
 Reference value :  2.63546e-07
 Reference value :  2.94216e-07
 Reference value :  3.23886e-07
No. of Data Rows : 68034

  Measurements for Transient Analysis

tphl                =  5.98015e-09 targ=  2.99902e-08 trig=  2.40100e-08
tplh                =  6.88156e-09 targ=  1.00912e-07 trig=  9.40300e-08
i_vdd_avg           =  -7.43137e-06 from=  1.00000e-08 to=  3.30001e-07
power_avg_uw        =  1.33765e+01


Total analysis time (seconds) = 6.2732

Total elapsed time (seconds) = 6.342 

Total DRAM available = 16384.000 MB.
DRAM currently available =  120.297 MB.
Maximum ngspice program size =   14.828 MB.
Current ngspice program size =   14.828 MB.

