
Note: No compatibility mode selected!


Circuit: GF180MCU library cell nand2_4 A1_to_ZN__A2=1

Doing analysis at TEMP = -40.000000 and TNOM = 27.000000

Using SPARSE 1.3 as Direct Linear Solver

Initial Transient Solution
--------------------------

Node                                   Voltage
----                                   -------
vdd                                       1.98
a1                                           0
a2                                        1.98
xu1.net_0_0                        7.88078e-12
zn                                        1.98
xu1.net_0_1                        7.88077e-12
xu1.net_0_2                        7.88078e-12
xu1.net_0_3                        7.88077e-12
vfix_a2#branch                               0
vin#branch                                   0
vdd#branch                        -7.97006e-12

 Reference value :  3.68875e-08
 Reference value :  8.74975e-08
 Reference value :  1.36128e-07
 Reference value :  1.85378e-07
 Reference value :  2.33878e-07
 Reference value :  2.83987e-07
 Reference value :  3.31542e-07
No. of Data Rows : 68032

  Measurements for Transient Analysis

tphl                =  1.12489e-09 targ=  2.85249e-08 trig=  2.74000e-08
tplh                =  2.18327e-09 targ=  1.06383e-07 trig=  1.04200e-07
i_vdd_avg           =  -1.84229e-06 from=  1.00000e-08 to=  3.30002e-07
power_avg_uw        =  3.64773e+00


Total analysis time (seconds) = 3.07721

Total elapsed time (seconds) = 3.137 

Total DRAM available = 16384.000 MB.
DRAM currently available =  153.891 MB.
Maximum ngspice program size =   14.109 MB.
Current ngspice program size =   14.109 MB.

