
Note: No compatibility mode selected!


Circuit: GF180MCU library cell nor2_1 A1_to_ZN__A2=0

Doing analysis at TEMP = -40.000000 and TNOM = 27.000000

Using SPARSE 1.3 as Direct Linear Solver

Initial Transient Solution
--------------------------

Node                                   Voltage
----                                   -------
vdd                                       1.98
a1                                           0
a2                                           0
zn                                        1.98
xu1.net_0                                 1.98
vfix_a2#branch                               0
vin#branch                                   0
vdd#branch                        -3.98583e-12

 Reference value :  1.25623e-07
 Reference value :  2.74452e-07
No. of Data Rows : 68032

  Measurements for Transient Analysis

tphl                =  1.28084e-09 targ=  2.52908e-08 trig=  2.40100e-08
tplh                =  3.91154e-09 targ=  9.79415e-08 trig=  9.40300e-08
i_vdd_avg           =  -1.50947e-06 from=  1.00000e-08 to=  3.30002e-07
power_avg_uw        =  2.98875e+00


Total analysis time (seconds) = 0.983463

Total elapsed time (seconds) = 1.043 

Total DRAM available = 16384.000 MB.
DRAM currently available =   84.016 MB.
Maximum ngspice program size =   14.469 MB.
Current ngspice program size =   14.469 MB.

