
Note: No compatibility mode selected!


Circuit: GF180MCU library cell inv_1 I_to_ZN

Doing analysis at TEMP = 125.000000 and TNOM = 27.000000

Using SPARSE 1.3 as Direct Linear Solver

Initial Transient Solution
--------------------------

Node                                   Voltage
----                                   -------
vdd                                       1.62
i                                            0
zn                                        1.62
vin#branch                                   0
vdd#branch                          -2.854e-12

 Reference value :  1.91998e-07
No. of Data Rows : 68032

  Measurements for Transient Analysis

tphl                =  5.61287e-09 targ=  2.96229e-08 trig=  2.40100e-08
tplh                =  1.47008e-08 targ=  1.08731e-07 trig=  9.40300e-08
i_vdd_avg           =  -1.96488e-06 from=  1.00000e-08 to=  3.30002e-07
power_avg_uw        =  3.18311e+00


Total analysis time (seconds) = 0.822383

Total elapsed time (seconds) = 0.880 

Total DRAM available = 16384.000 MB.
DRAM currently available =  138.375 MB.
Maximum ngspice program size =   14.844 MB.
Current ngspice program size =   14.844 MB.

