
Note: No compatibility mode selected!


Circuit: GF180MCU library cell aoi21_1 A1_to_ZN__A2=1,B=0

Doing analysis at TEMP = 25.000000 and TNOM = 27.000000

Using SPARSE 1.3 as Direct Linear Solver

Initial Transient Solution
--------------------------

Node                                   Voltage
----                                   -------
vdd                                        1.8
a1                                           0
a2                                         1.8
b                                            0
xu1.net_0                          1.86624e-10
zn                                         1.8
xu1.net_1                                  1.8
vfix_b#branch                                0
vfix_a2#branch                               0
vin#branch                                   0
vdd#branch                        -3.69622e-12

 Reference value :  7.88725e-08
 Reference value :  1.85178e-07
 Reference value :  2.97332e-07
No. of Data Rows : 68032

  Measurements for Transient Analysis

tphl                =  4.79341e-10 targ=  2.44893e-08 trig=  2.40100e-08
tplh                =  1.31052e-09 targ=  9.53405e-08 trig=  9.40300e-08
i_vdd_avg           =  -2.06516e-07 from=  1.00000e-08 to=  3.30002e-07
power_avg_uw        =  3.71728e-01


Total analysis time (seconds) = 1.41621

Total elapsed time (seconds) = 1.479 

Total DRAM available = 16384.000 MB.
DRAM currently available =  136.797 MB.
Maximum ngspice program size =   14.484 MB.
Current ngspice program size =   14.484 MB.

