
Note: No compatibility mode selected!


Circuit: GF180MCU library cell oai21_4 A1_to_ZN__A2=0,B=1

Doing analysis at TEMP = 125.000000 and TNOM = 27.000000

Using SPARSE 1.3 as Direct Linear Solver

Initial Transient Solution
--------------------------

Node                                   Voltage
----                                   -------
vdd                                       1.62
a1                                           0
a2                                           0
b                                         1.62
zn                                        1.62
xu1.net_0                          2.92015e-08
xu1.net_1_0                               1.62
xu1.net_1_1                               1.62
xu1.net_1_2                               1.62
xu1.net_1_3                               1.62
vfix_b#branch                                0
vfix_a2#branch                               0
vin#branch                                   0
vdd#branch                         -2.2832e-11

 Reference value :  2.46875e-08
 Reference value :  5.43865e-08
 Reference value :  8.39615e-08
 Reference value :  1.15601e-07
 Reference value :  1.45661e-07
 Reference value :  1.76211e-07
 Reference value :  2.07872e-07
 Reference value :  2.35727e-07
 Reference value :  2.66145e-07
 Reference value :  2.98110e-07
 Reference value :  3.29435e-07
No. of Data Rows : 68032

  Measurements for Transient Analysis

tphl                =  5.38725e-09 targ=  3.12643e-08 trig=  2.58770e-08
tplh                =  1.58192e-08 targ=  1.15450e-07 trig=  9.96310e-08
i_vdd_avg           =  -3.23892e-06 from=  1.00000e-08 to=  3.30000e-07
power_avg_uw        =  5.24705e+00


Total analysis time (seconds) = 4.24453

Total elapsed time (seconds) = 4.307 

Total DRAM available = 16384.000 MB.
DRAM currently available =  239.078 MB.
Maximum ngspice program size =   13.656 MB.
Current ngspice program size =   13.656 MB.

