
Note: No compatibility mode selected!


Circuit: GF180MCU library cell nand3_1 A1_to_ZN__A2=1,A3=1

Doing analysis at TEMP = -40.000000 and TNOM = 27.000000

Using SPARSE 1.3 as Direct Linear Solver

Initial Transient Solution
--------------------------

Node                                   Voltage
----                                   -------
vdd                                       1.98
a1                                           0
a2                                        1.98
a3                                        1.98
xu1.net_1                          7.88078e-12
xu1.net_0                          1.57614e-11
zn                                        1.98
vfix_a3#branch                               0
vfix_a2#branch                               0
vin#branch                                   0
vdd#branch                        -1.99251e-12

 Reference value :  7.50725e-08
 Reference value :  1.74628e-07
 Reference value :  2.84232e-07
No. of Data Rows : 68032

  Measurements for Transient Analysis

tphl                =  -4.78751e-11 targ=  2.73521e-08 trig=  2.74000e-08
tplh                =  8.65674e-10 targ=  1.05066e-07 trig=  1.04200e-07
i_vdd_avg           =  -9.72542e-08 from=  1.00000e-08 to=  3.30002e-07
power_avg_uw        =  1.92563e-01


Total analysis time (seconds) = 1.82156

Total elapsed time (seconds) = 1.891 

Total DRAM available = 16384.000 MB.
DRAM currently available =  115.031 MB.
Maximum ngspice program size =   14.781 MB.
Current ngspice program size =   14.781 MB.

