
Note: No compatibility mode selected!


Circuit: GF180MCU library cell inv_4 I_to_ZN

Doing analysis at TEMP = 125.000000 and TNOM = 27.000000

Using SPARSE 1.3 as Direct Linear Solver

Initial Transient Solution
--------------------------

Node                                   Voltage
----                                   -------
vdd                                       1.62
i                                            0
zn                                        1.62
vin#branch                                   0
vdd#branch                         -1.1416e-11

 Reference value :  6.99025e-08
 Reference value :  1.58838e-07
 Reference value :  2.39608e-07
 Reference value :  3.35317e-07
No. of Data Rows : 68032

  Measurements for Transient Analysis

tphl                =  5.27451e-09 targ=  4.17745e-08 trig=  3.65000e-08
tplh                =  9.77964e-09 targ=  1.41280e-07 trig=  1.31500e-07
i_vdd_avg           =  -1.23271e-06 from=  1.00000e-08 to=  3.30002e-07
power_avg_uw        =  1.99700e+00


Total analysis time (seconds) = 2.30181

Total elapsed time (seconds) = 2.361 

Total DRAM available = 16384.000 MB.
DRAM currently available =  159.953 MB.
Maximum ngspice program size =   15.922 MB.
Current ngspice program size =   15.922 MB.

