
Note: No compatibility mode selected!


Circuit: GF180MCU library cell nand2_4 A1_to_ZN__A2=1

Doing analysis at TEMP = -40.000000 and TNOM = 27.000000

Using SPARSE 1.3 as Direct Linear Solver

Initial Transient Solution
--------------------------

Node                                   Voltage
----                                   -------
vdd                                       1.98
a1                                           0
a2                                        1.98
xu1.net_0_0                        7.88078e-12
zn                                        1.98
xu1.net_0_1                        7.88077e-12
xu1.net_0_2                        7.88078e-12
xu1.net_0_3                        7.88077e-12
vfix_a2#branch                               0
vin#branch                                   0
vdd#branch                        -7.97006e-12

 Reference value :  3.64623e-08
 Reference value :  8.74823e-08
 Reference value :  1.36053e-07
 Reference value :  1.84837e-07
 Reference value :  2.30917e-07
 Reference value :  2.79362e-07
 Reference value :  3.24132e-07
No. of Data Rows : 68034

  Measurements for Transient Analysis

tphl                =  4.52818e-11 targ=  2.40553e-08 trig=  2.40100e-08
tplh                =  4.90453e-11 targ=  9.40790e-08 trig=  9.40300e-08
i_vdd_avg           =  -1.15713e-07 from=  1.00000e-08 to=  3.30002e-07
power_avg_uw        =  2.29112e-01


Total analysis time (seconds) = 4.00336

Total elapsed time (seconds) = 4.088 

Total DRAM available = 16384.000 MB.
DRAM currently available =  145.797 MB.
Maximum ngspice program size =   13.656 MB.
Current ngspice program size =   13.531 MB.

