
Note: No compatibility mode selected!


Circuit: GF180MCU library cell xor2_4 A1_to_Z__A2=0

Doing analysis at TEMP = 25.000000 and TNOM = 27.000000

Using SPARSE 1.3 as Direct Linear Solver

Initial Transient Solution
--------------------------

Node                                   Voltage
----                                   -------
vdd                                        1.8
a1                                           0
a2                                           0
xu1.net_2                            0.0222657
xu1.i                                      1.8
xu1.net_0                          3.73248e-10
xu1.z_neg                                  1.8
z                                  1.07301e-08
xu1.net_1                                  1.8
vfix_a2#branch                               0
vin#branch                                   0
vdd#branch                        -1.31738e-11

 Reference value :  3.46085e-08
 Reference value :  7.68535e-08
 Reference value :  1.16625e-07
 Reference value :  1.58110e-07
 Reference value :  1.98189e-07
 Reference value :  2.40064e-07
 Reference value :  2.81654e-07
 Reference value :  3.20959e-07
No. of Data Rows : 68032

  Measurements for Transient Analysis

tplh                =  7.93524e-09 targ=  3.28407e-08 trig=  2.49055e-08
tphl                =  4.98388e-09 targ=  1.01700e-07 trig=  9.67165e-08
i_vdd_avg           =  -9.54185e-06 from=  1.00000e-08 to=  3.30004e-07
power_avg_uw        =  1.71753e+01


Total analysis time (seconds) = 4.71825

Total elapsed time (seconds) = 4.776 

Total DRAM available = 16384.000 MB.
DRAM currently available =  147.406 MB.
Maximum ngspice program size =   14.109 MB.
Current ngspice program size =   14.109 MB.

