
Note: No compatibility mode selected!


Circuit: GF180MCU library cell aoi21_4 A1_to_ZN__A2=1,B=0

Doing analysis at TEMP = 25.000000 and TNOM = 27.000000

Using SPARSE 1.3 as Direct Linear Solver

Initial Transient Solution
--------------------------

Node                                   Voltage
----                                   -------
vdd                                        1.8
a1                                           0
a2                                         1.8
b                                            0
xu1.net_0_0                        1.86624e-10
zn                                         1.8
xu1.net_0_1                        1.86624e-10
xu1.net_0_2                        1.86624e-10
xu1.net_0_3                        1.86624e-10
xu1.net_1                                  1.8
vfix_b#branch                                0
vfix_a2#branch                               0
vin#branch                                   0
vdd#branch                        -1.47849e-11

 Reference value :  2.41725e-08
 Reference value :  5.75375e-08
 Reference value :  9.19375e-08
 Reference value :  1.22516e-07
 Reference value :  1.56496e-07
 Reference value :  1.90393e-07
 Reference value :  2.24738e-07
 Reference value :  2.58161e-07
 Reference value :  2.88826e-07
 Reference value :  3.19511e-07
No. of Data Rows : 68034

  Measurements for Transient Analysis

tphl                =  4.56494e-10 targ=  2.44665e-08 trig=  2.40100e-08
tplh                =  1.26369e-09 targ=  9.52937e-08 trig=  9.40300e-08
i_vdd_avg           =  -7.85158e-07 from=  1.00000e-08 to=  3.30001e-07
power_avg_uw        =  1.41328e+00


Total analysis time (seconds) = 4.47114

Total elapsed time (seconds) = 4.574 

Total DRAM available = 16384.000 MB.
DRAM currently available =   96.922 MB.
Maximum ngspice program size =   18.000 MB.
Current ngspice program size =   18.000 MB.

