
Note: No compatibility mode selected!


Circuit: GF180MCU library cell oai21_4 A1_to_ZN__A2=0,B=1

Doing analysis at TEMP = 125.000000 and TNOM = 27.000000

Using SPARSE 1.3 as Direct Linear Solver

Initial Transient Solution
--------------------------

Node                                   Voltage
----                                   -------
vdd                                       1.62
a1                                           0
a2                                           0
b                                         1.62
zn                                        1.62
xu1.net_0                          2.92015e-08
xu1.net_1_0                               1.62
xu1.net_1_1                               1.62
xu1.net_1_2                               1.62
xu1.net_1_3                               1.62
vfix_b#branch                                0
vfix_a2#branch                               0
vin#branch                                   0
vdd#branch                         -2.2832e-11

 Reference value :  2.10014e-08
 Reference value :  5.01275e-08
 Reference value :  8.10675e-08
 Reference value :  1.11287e-07
 Reference value :  1.43137e-07
 Reference value :  1.74302e-07
 Reference value :  2.05433e-07
 Reference value :  2.35888e-07
 Reference value :  2.66282e-07
 Reference value :  2.94917e-07
 Reference value :  3.25267e-07
No. of Data Rows : 68032

  Measurements for Transient Analysis

tphl                =  4.45950e-09 targ=  2.84695e-08 trig=  2.40100e-08
tplh                =  1.47923e-08 targ=  1.08822e-07 trig=  9.40300e-08
i_vdd_avg           =  -3.23864e-06 from=  1.00000e-08 to=  3.30002e-07
power_avg_uw        =  5.24660e+00


Total analysis time (seconds) = 4.68834

Total elapsed time (seconds) = 4.754 

Total DRAM available = 16384.000 MB.
DRAM currently available =  189.297 MB.
Maximum ngspice program size =   14.500 MB.
Current ngspice program size =   14.500 MB.

