
Note: No compatibility mode selected!


Circuit: GF180MCU library cell inv_4 I_to_ZN

Doing analysis at TEMP = -40.000000 and TNOM = 27.000000

Using SPARSE 1.3 as Direct Linear Solver

Initial Transient Solution
--------------------------

Node                                   Voltage
----                                   -------
vdd                                       1.98
i                                            0
zn                                        1.98
vin#branch                                   0
vdd#branch                        -7.97006e-12

 Reference value :  6.87155e-08
 Reference value :  1.69969e-07
 Reference value :  2.61398e-07
No. of Data Rows : 68034

  Measurements for Transient Analysis

tphl                =  5.05471e-10 targ=  2.50220e-08 trig=  2.45165e-08
tplh                =  8.81367e-10 targ=  9.64309e-08 trig=  9.55495e-08
i_vdd_avg           =  -1.83359e-06 from=  1.00000e-08 to=  3.30003e-07
power_avg_uw        =  3.63051e+00


Total analysis time (seconds) = 2.14239

Total elapsed time (seconds) = 2.206 

Total DRAM available = 16384.000 MB.
DRAM currently available =  110.156 MB.
Maximum ngspice program size =   16.594 MB.
Current ngspice program size =   16.594 MB.

