
Note: No compatibility mode selected!


Circuit: GF180MCU library cell aoi21_1 A1_to_ZN__A2=1,B=0

Doing analysis at TEMP = 125.000000 and TNOM = 27.000000

Using SPARSE 1.3 as Direct Linear Solver

Initial Transient Solution
--------------------------

Node                                   Voltage
----                                   -------
vdd                                       1.62
a1                                           0
a2                                        1.62
b                                            0
xu1.net_0                          1.46007e-08
zn                                        1.62
xu1.net_1                                 1.62
vfix_b#branch                                0
vfix_a2#branch                               0
vin#branch                                   0
vdd#branch                         -5.8898e-12

 Reference value :  9.50075e-08
 Reference value :  2.10038e-07
 Reference value :  3.13317e-07
No. of Data Rows : 68032

  Measurements for Transient Analysis

tphl                =  1.11608e-08 targ=  4.76608e-08 trig=  3.65000e-08
tplh                =  2.19736e-08 targ=  1.53474e-07 trig=  1.31500e-07
i_vdd_avg           =  -8.69246e-07 from=  1.00000e-08 to=  3.30002e-07
power_avg_uw        =  1.40818e+00


Total analysis time (seconds) = 1.03723

Total elapsed time (seconds) = 1.096 

Total DRAM available = 16384.000 MB.
DRAM currently available =  139.219 MB.
Maximum ngspice program size =   16.328 MB.
Current ngspice program size =   16.328 MB.

