
Note: No compatibility mode selected!


Circuit: GF180MCU library cell oai21_1 A1_to_ZN__A2=0,B=1

Doing analysis at TEMP = 125.000000 and TNOM = 27.000000

Using SPARSE 1.3 as Direct Linear Solver

Initial Transient Solution
--------------------------

Node                                   Voltage
----                                   -------
vdd                                       1.62
a1                                           0
a2                                           0
b                                         1.62
zn                                        1.62
xu1.net_0                          2.92015e-08
xu1.net_1                                 1.62
vfix_b#branch                                0
vfix_a2#branch                               0
vin#branch                                   0
vdd#branch                        -5.70799e-12

 Reference value :  7.51525e-08
 Reference value :  1.75853e-07
 Reference value :  2.80292e-07
No. of Data Rows : 68032

  Measurements for Transient Analysis

tphl                =  1.34980e-09 targ=  3.78498e-08 trig=  3.65000e-08
tplh                =  5.00108e-09 targ=  1.36501e-07 trig=  1.31500e-07
i_vdd_avg           =  -3.50952e-08 from=  1.00000e-08 to=  3.30002e-07
power_avg_uw        =  5.68543e-02


Total analysis time (seconds) = 1.86092

Total elapsed time (seconds) = 1.932 

Total DRAM available = 16384.000 MB.
DRAM currently available =  130.688 MB.
Maximum ngspice program size =   15.500 MB.
Current ngspice program size =   15.500 MB.

