
Note: No compatibility mode selected!


Circuit: GF180MCU library cell nand2_1 A1_to_ZN__A2=1

Doing analysis at TEMP = 25.000000 and TNOM = 27.000000

Using SPARSE 1.3 as Direct Linear Solver

Initial Transient Solution
--------------------------

Node                                   Voltage
----                                   -------
vdd                                        1.8
a1                                           0
a2                                         1.8
xu1.net_0                          1.86624e-10
zn                                         1.8
vfix_a2#branch                               0
vin#branch                                   0
vdd#branch                        -1.84302e-12

 Reference value :  1.26440e-07
 Reference value :  2.80314e-07
No. of Data Rows : 68032

  Measurements for Transient Analysis

tphl                =  5.18085e-09 targ=  3.00863e-08 trig=  2.49055e-08
tplh                =  7.45953e-09 targ=  1.04176e-07 trig=  9.67165e-08
i_vdd_avg           =  -2.15648e-06 from=  1.00000e-08 to=  3.30004e-07
power_avg_uw        =  3.88167e+00


Total analysis time (seconds) = 1.25579

Total elapsed time (seconds) = 1.306 

Total DRAM available = 16384.000 MB.
DRAM currently available =  102.469 MB.
Maximum ngspice program size =   15.734 MB.
Current ngspice program size =   15.734 MB.

