
Note: No compatibility mode selected!


Circuit: GF180MCU library cell aoi21_4 A1_to_ZN__A2=1,B=0

Doing analysis at TEMP = 125.000000 and TNOM = 27.000000

Using SPARSE 1.3 as Direct Linear Solver

Initial Transient Solution
--------------------------

Node                                   Voltage
----                                   -------
vdd                                       1.62
a1                                           0
a2                                        1.62
b                                            0
xu1.net_0_0                        1.46007e-08
zn                                        1.62
xu1.net_0_1                        1.46007e-08
xu1.net_0_2                        1.46007e-08
xu1.net_0_3                        1.46007e-08
xu1.net_1                                 1.62
vfix_b#branch                                0
vfix_a2#branch                               0
vin#branch                                   0
vdd#branch                        -2.35592e-11

 Reference value :  2.22264e-08
 Reference value :  5.28715e-08
 Reference value :  8.61115e-08
 Reference value :  1.14911e-07
 Reference value :  1.45676e-07
 Reference value :  1.75051e-07
 Reference value :  2.04782e-07
 Reference value :  2.34722e-07
 Reference value :  2.63440e-07
 Reference value :  2.92960e-07
 Reference value :  3.24145e-07
No. of Data Rows : 68032

  Measurements for Transient Analysis

tphl                =  7.01174e-10 targ=  2.65782e-08 trig=  2.58770e-08
tplh                =  1.41250e-09 targ=  1.01044e-07 trig=  9.96310e-08
i_vdd_avg           =  -9.03785e-08 from=  1.00000e-08 to=  3.30000e-07
power_avg_uw        =  1.46413e-01


Total analysis time (seconds) = 6.32513

Total elapsed time (seconds) = 6.390 

Total DRAM available = 16384.000 MB.
DRAM currently available =   79.641 MB.
Maximum ngspice program size =   15.016 MB.
Current ngspice program size =   15.016 MB.

