
Note: No compatibility mode selected!


Circuit: GF180MCU library cell aoi21_4 A1_to_ZN__A2=1,B=0

Doing analysis at TEMP = 125.000000 and TNOM = 27.000000

Using SPARSE 1.3 as Direct Linear Solver

Initial Transient Solution
--------------------------

Node                                   Voltage
----                                   -------
vdd                                       1.62
a1                                           0
a2                                        1.62
b                                            0
xu1.net_0_0                        1.46007e-08
zn                                        1.62
xu1.net_0_1                        1.46007e-08
xu1.net_0_2                        1.46007e-08
xu1.net_0_3                        1.46007e-08
xu1.net_1                                 1.62
vfix_b#branch                                0
vfix_a2#branch                               0
vin#branch                                   0
vdd#branch                        -2.35592e-11

 Reference value :  2.02664e-08
 Reference value :  5.02425e-08
 Reference value :  8.32225e-08
 Reference value :  1.18223e-07
 Reference value :  1.47033e-07
 Reference value :  1.77438e-07
 Reference value :  2.08318e-07
 Reference value :  2.39273e-07
 Reference value :  2.71127e-07
 Reference value :  3.00207e-07
 Reference value :  3.30712e-07
No. of Data Rows : 68032

  Measurements for Transient Analysis

tphl                =  2.10243e-10 targ=  2.42202e-08 trig=  2.40100e-08
tplh                =  5.61924e-10 targ=  9.45919e-08 trig=  9.40300e-08
i_vdd_avg           =  -1.18221e-07 from=  1.00000e-08 to=  3.30002e-07
power_avg_uw        =  1.91519e-01


Total analysis time (seconds) = 6.08024

Total elapsed time (seconds) = 6.147 

Total DRAM available = 16384.000 MB.
DRAM currently available =   86.844 MB.
Maximum ngspice program size =   13.672 MB.
Current ngspice program size =   13.672 MB.

