
Note: No compatibility mode selected!


Circuit: GF180MCU library cell oai21_4 A1_to_ZN__A2=0,B=1

Doing analysis at TEMP = 25.000000 and TNOM = 27.000000

Using SPARSE 1.3 as Direct Linear Solver

Initial Transient Solution
--------------------------

Node                                   Voltage
----                                   -------
vdd                                        1.8
a1                                           0
a2                                           0
b                                          1.8
zn                                         1.8
xu1.net_0                          3.73248e-10
xu1.net_1_0                                1.8
xu1.net_1_1                                1.8
xu1.net_1_2                                1.8
xu1.net_1_3                                1.8
vfix_b#branch                                0
vfix_a2#branch                               0
vin#branch                                   0
vdd#branch                        -1.47442e-11

 Reference value :  1.95114e-08
 Reference value :  4.91475e-08
 Reference value :  8.05025e-08
 Reference value :  1.09843e-07
 Reference value :  1.39303e-07
 Reference value :  1.69893e-07
 Reference value :  1.99873e-07
 Reference value :  2.31628e-07
 Reference value :  2.62717e-07
 Reference value :  2.94092e-07
 Reference value :  3.24147e-07
No. of Data Rows : 68032

  Measurements for Transient Analysis

tphl                =  -2.02290e-11 targ=  2.99798e-08 trig=  3.00000e-08
tplh                =  1.81953e-09 targ=  1.13820e-07 trig=  1.12000e-07
i_vdd_avg           =  -1.48284e-07 from=  1.00000e-08 to=  3.30002e-07
power_avg_uw        =  2.66910e-01


Total analysis time (seconds) = 6.23151

Total elapsed time (seconds) = 6.303 

Total DRAM available = 16384.000 MB.
DRAM currently available =  128.391 MB.
Maximum ngspice program size =   16.859 MB.
Current ngspice program size =   16.859 MB.

