
Note: No compatibility mode selected!


Circuit: GF180MCU library cell oai21_4 A1_to_ZN__A2=0,B=1

Doing analysis at TEMP = -40.000000 and TNOM = 27.000000

Using SPARSE 1.3 as Direct Linear Solver

Initial Transient Solution
--------------------------

Node                                   Voltage
----                                   -------
vdd                                       1.98
a1                                           0
a2                                           0
b                                         1.98
zn                                        1.98
xu1.net_0                          1.57614e-11
xu1.net_1_0                               1.98
xu1.net_1_1                               1.98
xu1.net_1_2                               1.98
xu1.net_1_3                               1.98
vfix_b#branch                                0
vfix_a2#branch                               0
vin#branch                                   0
vdd#branch                        -1.59401e-11

 Reference value :  2.00914e-08
 Reference value :  5.01825e-08
 Reference value :  8.01925e-08
 Reference value :  1.11533e-07
 Reference value :  1.43713e-07
 Reference value :  1.74753e-07
 Reference value :  2.05028e-07
 Reference value :  2.35883e-07
 Reference value :  2.66642e-07
 Reference value :  2.96857e-07
 Reference value :  3.28272e-07
No. of Data Rows : 68032

  Measurements for Transient Analysis

tphl                =  4.89694e-11 targ=  2.40590e-08 trig=  2.40100e-08
tplh                =  1.10044e-10 targ=  9.41400e-08 trig=  9.40300e-08
i_vdd_avg           =  -1.32645e-07 from=  1.00000e-08 to=  3.30002e-07
power_avg_uw        =  2.62637e-01


Total analysis time (seconds) = 6.25607

Total elapsed time (seconds) = 6.323 

Total DRAM available = 16384.000 MB.
DRAM currently available =   91.984 MB.
Maximum ngspice program size =   14.484 MB.
Current ngspice program size =   14.484 MB.

