
Note: No compatibility mode selected!


Circuit: GF180MCU library cell oai21_4 A1_to_ZN__A2=0,B=1

Doing analysis at TEMP = -40.000000 and TNOM = 27.000000

Using SPARSE 1.3 as Direct Linear Solver

Initial Transient Solution
--------------------------

Node                                   Voltage
----                                   -------
vdd                                       1.98
a1                                           0
a2                                           0
b                                         1.98
zn                                        1.98
xu1.net_0                          1.57614e-11
xu1.net_1_0                               1.98
xu1.net_1_1                               1.98
xu1.net_1_2                               1.98
xu1.net_1_3                               1.98
vfix_b#branch                                0
vfix_a2#branch                               0
vin#branch                                   0
vdd#branch                        -1.59401e-11

 Reference value :  2.09464e-08
 Reference value :  5.02275e-08
 Reference value :  7.93175e-08
 Reference value :  1.10988e-07
 Reference value :  1.42313e-07
 Reference value :  1.73333e-07
 Reference value :  2.03593e-07
 Reference value :  2.32828e-07
 Reference value :  2.62062e-07
 Reference value :  2.93727e-07
 Reference value :  3.25522e-07
No. of Data Rows : 68032

  Measurements for Transient Analysis

tphl                =  2.60337e-09 targ=  3.00034e-08 trig=  2.74000e-08
tplh                =  5.49702e-09 targ=  1.09697e-07 trig=  1.04200e-07
i_vdd_avg           =  -5.44675e-06 from=  1.00000e-08 to=  3.30002e-07
power_avg_uw        =  1.07846e+01


Total analysis time (seconds) = 6.3783

Total elapsed time (seconds) = 6.442 

Total DRAM available = 16384.000 MB.
DRAM currently available =  130.062 MB.
Maximum ngspice program size =   15.125 MB.
Current ngspice program size =   15.125 MB.

