
Note: No compatibility mode selected!


Circuit: GF180MCU library cell oai21_1 A1_to_ZN__A2=0,B=1

Doing analysis at TEMP = 25.000000 and TNOM = 27.000000

Using SPARSE 1.3 as Direct Linear Solver

Initial Transient Solution
--------------------------

Node                                   Voltage
----                                   -------
vdd                                        1.8
a1                                           0
a2                                           0
b                                          1.8
zn                                         1.8
xu1.net_0                          3.73248e-10
xu1.net_1                                  1.8
vfix_b#branch                                0
vfix_a2#branch                               0
vin#branch                                   0
vdd#branch                        -3.68605e-12

 Reference value :  8.03375e-08
 Reference value :  1.85168e-07
 Reference value :  2.91277e-07
No. of Data Rows : 68032

  Measurements for Transient Analysis

tphl                =  1.72240e-10 targ=  3.01722e-08 trig=  3.00000e-08
tplh                =  1.97099e-09 targ=  1.13971e-07 trig=  1.12000e-07
i_vdd_avg           =  -4.69907e-08 from=  1.00000e-08 to=  3.30002e-07
power_avg_uw        =  8.45833e-02


Total analysis time (seconds) = 1.71792

Total elapsed time (seconds) = 1.785 

Total DRAM available = 16384.000 MB.
DRAM currently available =   79.641 MB.
Maximum ngspice program size =   14.656 MB.
Current ngspice program size =   14.656 MB.

