
Note: No compatibility mode selected!


Circuit: GF180MCU library cell nand3_1 A1_to_ZN__A2=1,A3=1

Doing analysis at TEMP = 25.000000 and TNOM = 27.000000

Using SPARSE 1.3 as Direct Linear Solver

Initial Transient Solution
--------------------------

Node                                   Voltage
----                                   -------
vdd                                        1.8
a1                                           0
a2                                         1.8
a3                                         1.8
xu1.net_1                          1.86624e-10
xu1.net_0                          3.73248e-10
zn                                         1.8
vfix_a3#branch                               0
vfix_a2#branch                               0
vin#branch                                   0
vdd#branch                        -1.84302e-12

 Reference value :  8.66775e-08
 Reference value :  1.96228e-07
 Reference value :  2.99042e-07
No. of Data Rows : 68032

  Measurements for Transient Analysis

tphl                =  2.57443e-10 targ=  3.02574e-08 trig=  3.00000e-08
tplh                =  1.77478e-09 targ=  1.13775e-07 trig=  1.12000e-07
i_vdd_avg           =  -4.43755e-08 from=  1.00000e-08 to=  3.30002e-07
power_avg_uw        =  7.98759e-02


Total analysis time (seconds) = 1.72809

Total elapsed time (seconds) = 1.788 

Total DRAM available = 16384.000 MB.
DRAM currently available =  101.438 MB.
Maximum ngspice program size =   12.578 MB.
Current ngspice program size =   12.578 MB.

