
Note: No compatibility mode selected!


Circuit: GF180MCU library cell nand3_4 A1_to_ZN__A2=1,A3=1

Doing analysis at TEMP = 25.000000 and TNOM = 27.000000

Using SPARSE 1.3 as Direct Linear Solver

Initial Transient Solution
--------------------------

Node                                   Voltage
----                                   -------
vdd                                        1.8
a1                                           0
a2                                         1.8
a3                                         1.8
xu1.net_1_3                        1.86624e-10
xu1.net_0                          3.73248e-10
xu1.net_1_2                        1.86624e-10
xu1.net_1_1                        1.86624e-10
xu1.net_1_0                        1.86624e-10
xu1.net_0_0                        3.73248e-10
zn                                         1.8
vfix_a3#branch                               0
vfix_a2#branch                               0
vin#branch                                   0
vdd#branch                         -7.3721e-12

 Reference value :  2.14914e-08
 Reference value :  5.32275e-08
 Reference value :  8.21175e-08
 Reference value :  1.12873e-07
 Reference value :  1.44938e-07
 Reference value :  1.75813e-07
 Reference value :  2.05278e-07
 Reference value :  2.36293e-07
 Reference value :  2.66812e-07
 Reference value :  2.98422e-07
 Reference value :  3.28652e-07
No. of Data Rows : 68032

  Measurements for Transient Analysis

tphl                =  2.66580e-09 targ=  3.26658e-08 trig=  3.00000e-08
tplh                =  4.31980e-09 targ=  1.16320e-07 trig=  1.12000e-07
i_vdd_avg           =  -1.21096e-06 from=  1.00000e-08 to=  3.30002e-07
power_avg_uw        =  2.17973e+00


Total analysis time (seconds) = 6.21613

Total elapsed time (seconds) = 6.286 

Total DRAM available = 16384.000 MB.
DRAM currently available =  118.172 MB.
Maximum ngspice program size =   15.578 MB.
Current ngspice program size =   15.578 MB.

