
Note: No compatibility mode selected!


Circuit: GF180MCU library cell nor2_4 A1_to_ZN__A2=0

Doing analysis at TEMP = 125.000000 and TNOM = 27.000000

Using SPARSE 1.3 as Direct Linear Solver

Initial Transient Solution
--------------------------

Node                                   Voltage
----                                   -------
vdd                                       1.62
a1                                           0
a2                                           0
zn                                        1.62
xu1.net_0_0                               1.62
xu1.net_0_1                               1.62
xu1.net_0_2                               1.62
xu1.net_0_3                               1.62
vfix_a2#branch                               0
vin#branch                                   0
vdd#branch                         -2.2954e-11

 Reference value :  3.43975e-08
 Reference value :  8.43625e-08
 Reference value :  1.31427e-07
 Reference value :  1.76067e-07
 Reference value :  2.23788e-07
 Reference value :  2.70277e-07
 Reference value :  3.14952e-07
No. of Data Rows : 68032

  Measurements for Transient Analysis

tphl                =  6.57145e-10 targ=  2.46671e-08 trig=  2.40100e-08
tplh                =  2.59282e-09 targ=  9.66228e-08 trig=  9.40300e-08
i_vdd_avg           =  -6.23754e-07 from=  1.00000e-08 to=  3.30002e-07
power_avg_uw        =  1.01048e+00


Total analysis time (seconds) = 4.25762

Total elapsed time (seconds) = 4.319 

Total DRAM available = 16384.000 MB.
DRAM currently available =   88.781 MB.
Maximum ngspice program size =   13.141 MB.
Current ngspice program size =   12.922 MB.

