
Note: No compatibility mode selected!


Circuit: GF180MCU library cell oai21_4 A1_to_ZN__A2=0,B=1

Doing analysis at TEMP = -40.000000 and TNOM = 27.000000

Using SPARSE 1.3 as Direct Linear Solver

Initial Transient Solution
--------------------------

Node                                   Voltage
----                                   -------
vdd                                       1.98
a1                                           0
a2                                           0
b                                         1.98
zn                                        1.98
xu1.net_0                          1.57614e-11
xu1.net_1_0                               1.98
xu1.net_1_1                               1.98
xu1.net_1_2                               1.98
xu1.net_1_3                               1.98
vfix_b#branch                                0
vfix_a2#branch                               0
vin#branch                                   0
vdd#branch                        -1.59401e-11

 Reference value :  2.44175e-08
 Reference value :  5.36375e-08
 Reference value :  8.39825e-08
 Reference value :  1.13241e-07
 Reference value :  1.45671e-07
 Reference value :  1.75981e-07
 Reference value :  2.06573e-07
 Reference value :  2.37248e-07
 Reference value :  2.69301e-07
 Reference value :  3.02436e-07
 Reference value :  3.33466e-07
No. of Data Rows : 68036

  Measurements for Transient Analysis

tphl                =  1.41720e-09 targ=  2.54272e-08 trig=  2.40100e-08
tplh                =  3.91303e-09 targ=  9.79430e-08 trig=  9.40300e-08
i_vdd_avg           =  -5.41114e-06 from=  1.00000e-08 to=  3.30001e-07
power_avg_uw        =  1.07141e+01


Total analysis time (seconds) = 6.27935

Total elapsed time (seconds) = 6.343 

Total DRAM available = 16384.000 MB.
DRAM currently available =   80.719 MB.
Maximum ngspice program size =   14.859 MB.
Current ngspice program size =   14.859 MB.

