
Note: No compatibility mode selected!


Circuit: GF180MCU library cell nand2_1 A1_to_ZN__A2=1

Doing analysis at TEMP = 125.000000 and TNOM = 27.000000

Using SPARSE 1.3 as Direct Linear Solver

Initial Transient Solution
--------------------------

Node                                   Voltage
----                                   -------
vdd                                       1.62
a1                                           0
a2                                        1.62
xu1.net_0                          1.46007e-08
zn                                        1.62
vfix_a2#branch                               0
vin#branch                                   0
vdd#branch                          -2.854e-12

 Reference value :  1.33373e-07
 Reference value :  2.68577e-07
No. of Data Rows : 68032

  Measurements for Transient Analysis

tphl                =  2.31452e-10 targ=  2.42415e-08 trig=  2.40100e-08
tplh                =  3.05499e-10 targ=  9.43355e-08 trig=  9.40300e-08
i_vdd_avg           =  -3.38881e-08 from=  1.00000e-08 to=  3.30002e-07
power_avg_uw        =  5.48986e-02


Total analysis time (seconds) = 1.23276

Total elapsed time (seconds) = 1.293 

Total DRAM available = 16384.000 MB.
DRAM currently available =  124.406 MB.
Maximum ngspice program size =   15.000 MB.
Current ngspice program size =   15.000 MB.

