
Note: No compatibility mode selected!


Circuit: GF180MCU library cell oai21_4 A1_to_ZN__A2=0,B=1

Doing analysis at TEMP = -40.000000 and TNOM = 27.000000

Using SPARSE 1.3 as Direct Linear Solver

Initial Transient Solution
--------------------------

Node                                   Voltage
----                                   -------
vdd                                       1.98
a1                                           0
a2                                           0
b                                         1.98
zn                                        1.98
xu1.net_0                          1.57614e-11
xu1.net_1_0                               1.98
xu1.net_1_1                               1.98
xu1.net_1_2                               1.98
xu1.net_1_3                               1.98
vfix_b#branch                                0
vfix_a2#branch                               0
vin#branch                                   0
vdd#branch                        -1.59401e-11

 Reference value :  2.11314e-08
 Reference value :  5.10725e-08
 Reference value :  8.00575e-08
 Reference value :  1.09598e-07
 Reference value :  1.40743e-07
 Reference value :  1.73978e-07
 Reference value :  2.04373e-07
 Reference value :  2.35538e-07
 Reference value :  2.65487e-07
 Reference value :  2.95827e-07
 Reference value :  3.25512e-07
No. of Data Rows : 68032

  Measurements for Transient Analysis

tphl                =  -2.53823e-10 targ=  2.71462e-08 trig=  2.74000e-08
tplh                =  9.57875e-10 targ=  1.05158e-07 trig=  1.04200e-07
i_vdd_avg           =  -3.47600e-07 from=  1.00000e-08 to=  3.30002e-07
power_avg_uw        =  6.88247e-01


Total analysis time (seconds) = 6.44037

Total elapsed time (seconds) = 6.510 

Total DRAM available = 16384.000 MB.
DRAM currently available =  122.328 MB.
Maximum ngspice program size =   14.000 MB.
Current ngspice program size =   14.000 MB.

