
Note: No compatibility mode selected!


Circuit: GF180MCU library cell nand3_4 A1_to_ZN__A2=1,A3=1

Doing analysis at TEMP = -40.000000 and TNOM = 27.000000

Using SPARSE 1.3 as Direct Linear Solver

Initial Transient Solution
--------------------------

Node                                   Voltage
----                                   -------
vdd                                       1.98
a1                                           0
a2                                        1.98
a3                                        1.98
xu1.net_1_3                        7.88079e-12
xu1.net_0                          1.57615e-11
xu1.net_1_2                        7.88071e-12
xu1.net_1_1                        7.88079e-12
xu1.net_1_0                        7.88078e-12
xu1.net_0_0                        1.57615e-11
zn                                        1.98
vfix_a3#branch                               0
vfix_a2#branch                               0
vin#branch                                   0
vdd#branch                        -7.97006e-12

 Reference value :  2.28614e-08
 Reference value :  5.05865e-08
 Reference value :  7.96165e-08
 Reference value :  1.10646e-07
 Reference value :  1.40216e-07
 Reference value :  1.71596e-07
 Reference value :  2.03181e-07
 Reference value :  2.33631e-07
 Reference value :  2.64726e-07
 Reference value :  2.96846e-07
 Reference value :  3.27771e-07
No. of Data Rows : 68036

  Measurements for Transient Analysis

tphl                =  3.46481e-09 targ=  2.74748e-08 trig=  2.40100e-08
tplh                =  3.86280e-09 targ=  9.78928e-08 trig=  9.40300e-08
i_vdd_avg           =  -9.39331e-06 from=  1.00000e-08 to=  3.30001e-07
power_avg_uw        =  1.85987e+01


Total analysis time (seconds) = 5.36502

Total elapsed time (seconds) = 5.427 

Total DRAM available = 16384.000 MB.
DRAM currently available =  187.375 MB.
Maximum ngspice program size =   12.953 MB.
Current ngspice program size =   12.953 MB.

