
Note: No compatibility mode selected!


Circuit: GF180MCU library cell inv_1 I_to_ZN

Doing analysis at TEMP = -40.000000 and TNOM = 27.000000

Using SPARSE 1.3 as Direct Linear Solver

Initial Transient Solution
--------------------------

Node                                   Voltage
----                                   -------
vdd                                       1.98
i                                            0
zn                                        1.98
vin#branch                                   0
vdd#branch                        -1.99251e-12

 Reference value :  2.12058e-07
No. of Data Rows : 68032

  Measurements for Transient Analysis

tphl                =  8.93983e-10 targ=  2.82940e-08 trig=  2.74000e-08
tplh                =  2.19767e-09 targ=  1.06398e-07 trig=  1.04200e-07
i_vdd_avg           =  -5.02726e-07 from=  1.00000e-08 to=  3.30002e-07
power_avg_uw        =  9.95398e-01


Total analysis time (seconds) = 0.627367

Total elapsed time (seconds) = 0.683 

Total DRAM available = 16384.000 MB.
DRAM currently available =  129.797 MB.
Maximum ngspice program size =   14.203 MB.
Current ngspice program size =   14.203 MB.

