
Note: No compatibility mode selected!


Circuit: GF180MCU library cell aoi21_1 A1_to_ZN__A2=1,B=0

Doing analysis at TEMP = 125.000000 and TNOM = 27.000000

Using SPARSE 1.3 as Direct Linear Solver

Initial Transient Solution
--------------------------

Node                                   Voltage
----                                   -------
vdd                                       1.62
a1                                           0
a2                                        1.62
b                                            0
xu1.net_0                          1.46007e-08
zn                                        1.62
xu1.net_1                                 1.62
vfix_b#branch                                0
vfix_a2#branch                               0
vin#branch                                   0
vdd#branch                         -5.8898e-12

 Reference value :  1.04108e-07
 Reference value :  2.17163e-07
 Reference value :  3.12092e-07
No. of Data Rows : 68032

  Measurements for Transient Analysis

tphl                =  2.54130e-10 targ=  2.42641e-08 trig=  2.40100e-08
tplh                =  6.93331e-10 targ=  9.47233e-08 trig=  9.40300e-08
i_vdd_avg           =  -3.77805e-08 from=  1.00000e-08 to=  3.30002e-07
power_avg_uw        =  6.12044e-02


Total analysis time (seconds) = 0.961292

Total elapsed time (seconds) = 1.021 

Total DRAM available = 16384.000 MB.
DRAM currently available =  152.938 MB.
Maximum ngspice program size =   12.891 MB.
Current ngspice program size =   12.891 MB.

