
Note: No compatibility mode selected!


Circuit: GF180MCU library cell xor2_4 A1_to_Z__A2=0

Doing analysis at TEMP = -40.000000 and TNOM = 27.000000

Using SPARSE 1.3 as Direct Linear Solver

Initial Transient Solution
--------------------------

Node                                   Voltage
----                                   -------
vdd                                       1.98
a1                                           0
a2                                           0
xu1.net_2                           0.00394929
xu1.i                                     1.98
xu1.net_0                          1.57615e-11
xu1.z_neg                                 1.98
z                                  6.60779e-09
xu1.net_1                                 1.98
vfix_a2#branch                               0
vin#branch                                   0
vdd#branch                        -1.44208e-11

 Reference value :  2.85375e-08
 Reference value :  6.89075e-08
 Reference value :  1.09268e-07
 Reference value :  1.52003e-07
 Reference value :  1.92773e-07
 Reference value :  2.36603e-07
 Reference value :  2.77727e-07
 Reference value :  3.19167e-07
No. of Data Rows : 68032

  Measurements for Transient Analysis

tplh                =  4.59109e-09 targ=  3.19911e-08 trig=  2.74000e-08
tphl                =  3.96982e-09 targ=  1.08170e-07 trig=  1.04200e-07
i_vdd_avg           =  -1.20218e-05 from=  1.00000e-08 to=  3.30002e-07
power_avg_uw        =  2.38032e+01


Total analysis time (seconds) = 4.73933

Total elapsed time (seconds) = 4.804 

Total DRAM available = 16384.000 MB.
DRAM currently available =  109.062 MB.
Maximum ngspice program size =   12.875 MB.
Current ngspice program size =   12.719 MB.

