
Note: No compatibility mode selected!


Circuit: GF180MCU library cell nand3_4 A1_to_ZN__A2=1,A3=1

Doing analysis at TEMP = 125.000000 and TNOM = 27.000000

Using SPARSE 1.3 as Direct Linear Solver

Initial Transient Solution
--------------------------

Node                                   Voltage
----                                   -------
vdd                                       1.62
a1                                           0
a2                                        1.62
a3                                        1.62
xu1.net_1_3                        1.46007e-08
xu1.net_0                          2.92015e-08
xu1.net_1_2                        1.46007e-08
xu1.net_1_1                        1.46007e-08
xu1.net_1_0                        1.46007e-08
xu1.net_0_0                        2.92015e-08
zn                                        1.62
vfix_a3#branch                               0
vfix_a2#branch                               0
vin#branch                                   0
vdd#branch                         -1.1416e-11

 Reference value :  2.28264e-08
 Reference value :  5.25375e-08
 Reference value :  8.23225e-08
 Reference value :  1.11888e-07
 Reference value :  1.43028e-07
 Reference value :  1.74428e-07
 Reference value :  2.04203e-07
 Reference value :  2.33808e-07
 Reference value :  2.65357e-07
 Reference value :  2.93767e-07
 Reference value :  3.21252e-07
No. of Data Rows : 68032

  Measurements for Transient Analysis

tphl                =  2.73575e-10 targ=  2.42836e-08 trig=  2.40100e-08
tplh                =  2.96234e-10 targ=  9.43262e-08 trig=  9.40300e-08
i_vdd_avg           =  -1.12520e-07 from=  1.00000e-08 to=  3.30002e-07
power_avg_uw        =  1.82283e-01


Total analysis time (seconds) = 4.90298

Total elapsed time (seconds) = 4.965 

Total DRAM available = 16384.000 MB.
DRAM currently available =  218.156 MB.
Maximum ngspice program size =   15.219 MB.
Current ngspice program size =   15.219 MB.

