
Note: No compatibility mode selected!


Circuit: GF180MCU library cell nand3_1 A1_to_ZN__A2=1,A3=1

Doing analysis at TEMP = 25.000000 and TNOM = 27.000000

Using SPARSE 1.3 as Direct Linear Solver

Initial Transient Solution
--------------------------

Node                                   Voltage
----                                   -------
vdd                                        1.8
a1                                           0
a2                                         1.8
a3                                         1.8
xu1.net_1                          1.86624e-10
xu1.net_0                          3.73248e-10
zn                                         1.8
vfix_a3#branch                               0
vfix_a2#branch                               0
vin#branch                                   0
vdd#branch                        -1.84302e-12

 Reference value :  7.78875e-08
 Reference value :  1.79448e-07
 Reference value :  2.83022e-07
No. of Data Rows : 68032

  Measurements for Transient Analysis

tphl                =  5.99098e-09 targ=  3.00010e-08 trig=  2.40100e-08
tplh                =  6.89351e-09 targ=  1.00924e-07 trig=  9.40300e-08
i_vdd_avg           =  -1.86112e-06 from=  1.00000e-08 to=  3.30002e-07
power_avg_uw        =  3.35002e+00


Total analysis time (seconds) = 1.76801

Total elapsed time (seconds) = 1.837 

Total DRAM available = 16384.000 MB.
DRAM currently available =  137.844 MB.
Maximum ngspice program size =   13.844 MB.
Current ngspice program size =   13.844 MB.

