
Note: No compatibility mode selected!


Circuit: GF180MCU library cell aoi21_4 A1_to_ZN__A2=1,B=0

Doing analysis at TEMP = -40.000000 and TNOM = 27.000000

Using SPARSE 1.3 as Direct Linear Solver

Initial Transient Solution
--------------------------

Node                                   Voltage
----                                   -------
vdd                                       1.98
a1                                           0
a2                                        1.98
b                                            0
xu1.net_0_0                        7.88074e-12
zn                                        1.98
xu1.net_0_1                        7.88076e-12
xu1.net_0_2                        7.88074e-12
xu1.net_0_3                        7.88076e-12
xu1.net_1                                 1.98
vfix_b#branch                                0
vfix_a2#branch                               0
vin#branch                                   0
vdd#branch                        -1.59439e-11

 Reference value :  2.45275e-08
 Reference value :  5.69875e-08
 Reference value :  8.95975e-08
 Reference value :  1.21105e-07
 Reference value :  1.52885e-07
 Reference value :  1.83525e-07
 Reference value :  2.12678e-07
 Reference value :  2.44198e-07
 Reference value :  2.73570e-07
 Reference value :  3.06280e-07
 Reference value :  3.38820e-07
No. of Data Rows : 68036

  Measurements for Transient Analysis

tphl                =  2.77444e-10 targ=  2.42874e-08 trig=  2.40100e-08
tplh                =  6.87438e-10 targ=  9.47174e-08 trig=  9.40300e-08
i_vdd_avg           =  -1.01841e-06 from=  1.00000e-08 to=  3.30000e-07
power_avg_uw        =  2.01645e+00


Total analysis time (seconds) = 6.03767

Total elapsed time (seconds) = 6.102 

Total DRAM available = 16384.000 MB.
DRAM currently available =  115.406 MB.
Maximum ngspice program size =   14.094 MB.
Current ngspice program size =   14.094 MB.

