
Note: No compatibility mode selected!


Circuit: GF180MCU library cell nand2_4 A1_to_ZN__A2=1

Doing analysis at TEMP = 125.000000 and TNOM = 27.000000

Using SPARSE 1.3 as Direct Linear Solver

Initial Transient Solution
--------------------------

Node                                   Voltage
----                                   -------
vdd                                       1.62
a1                                           0
a2                                        1.62
xu1.net_0_0                        1.46007e-08
zn                                        1.62
xu1.net_0_1                        1.46007e-08
xu1.net_0_2                        1.46007e-08
xu1.net_0_3                        1.46007e-08
vfix_a2#branch                               0
vin#branch                                   0
vdd#branch                         -1.1416e-11

 Reference value :  4.72475e-08
 Reference value :  9.06875e-08
 Reference value :  1.35596e-07
 Reference value :  1.81216e-07
 Reference value :  2.29288e-07
 Reference value :  2.75271e-07
 Reference value :  3.26541e-07
No. of Data Rows : 68034

  Measurements for Transient Analysis

tphl                =  9.90799e-09 targ=  3.39180e-08 trig=  2.40100e-08
tplh                =  1.46723e-08 targ=  1.08702e-07 trig=  9.40300e-08
i_vdd_avg           =  -7.22671e-06 from=  1.00000e-08 to=  3.30001e-07
power_avg_uw        =  1.17073e+01


Total analysis time (seconds) = 2.55041

Total elapsed time (seconds) = 2.610 

Total DRAM available = 16384.000 MB.
DRAM currently available =  105.141 MB.
Maximum ngspice program size =   13.516 MB.
Current ngspice program size =   12.688 MB.

