
Note: No compatibility mode selected!


Circuit: GF180MCU library cell inv_4 I_to_ZN

Doing analysis at TEMP = 125.000000 and TNOM = 27.000000

Using SPARSE 1.3 as Direct Linear Solver

Initial Transient Solution
--------------------------

Node                                   Voltage
----                                   -------
vdd                                       1.62
i                                            0
zn                                        1.62
vin#branch                                   0
vdd#branch                         -1.1416e-11

 Reference value :  7.39965e-08
 Reference value :  1.68556e-07
 Reference value :  2.58446e-07
No. of Data Rows : 68032

  Measurements for Transient Analysis

tphl                =  6.66268e-09 targ=  3.25397e-08 trig=  2.58770e-08
tplh                =  1.59181e-08 targ=  1.15549e-07 trig=  9.96310e-08
i_vdd_avg           =  -7.87610e-06 from=  1.00000e-08 to=  3.30000e-07
power_avg_uw        =  1.27593e+01


Total analysis time (seconds) = 2.07695

Total elapsed time (seconds) = 2.133 

Total DRAM available = 16384.000 MB.
DRAM currently available =  159.953 MB.
Maximum ngspice program size =   15.250 MB.
Current ngspice program size =   15.250 MB.

