
Note: No compatibility mode selected!


Circuit: GF180MCU library cell nand2_4 A1_to_ZN__A2=1

Doing analysis at TEMP = 125.000000 and TNOM = 27.000000

Using SPARSE 1.3 as Direct Linear Solver

Initial Transient Solution
--------------------------

Node                                   Voltage
----                                   -------
vdd                                       1.62
a1                                           0
a2                                        1.62
xu1.net_0_0                        1.46007e-08
zn                                        1.62
xu1.net_0_1                        1.46007e-08
xu1.net_0_2                        1.46007e-08
xu1.net_0_3                        1.46007e-08
vfix_a2#branch                               0
vin#branch                                   0
vdd#branch                         -1.1416e-11

 Reference value :  3.68565e-08
 Reference value :  8.23915e-08
 Reference value :  1.31816e-07
 Reference value :  1.75516e-07
 Reference value :  2.24802e-07
 Reference value :  2.77625e-07
 Reference value :  3.27825e-07
No. of Data Rows : 68032

  Measurements for Transient Analysis

tphl                =  2.55420e-09 targ=  2.84312e-08 trig=  2.58770e-08
tplh                =  3.56120e-09 targ=  1.03192e-07 trig=  9.96310e-08
i_vdd_avg           =  -1.15824e-06 from=  1.00000e-08 to=  3.30000e-07
power_avg_uw        =  1.87636e+00


Total analysis time (seconds) = 2.62849

Total elapsed time (seconds) = 2.695 

Total DRAM available = 16384.000 MB.
DRAM currently available =  105.141 MB.
Maximum ngspice program size =   14.125 MB.
Current ngspice program size =   14.125 MB.

