
Note: No compatibility mode selected!


Circuit: GF180MCU library cell mux2_1 I0_to_Z__I1=0,S=0

Doing analysis at TEMP = 25.000000 and TNOM = 27.000000

Using SPARSE 1.3 as Direct Linear Solver

Initial Transient Solution
--------------------------

Node                                   Voltage
----                                   -------
vdd                                        1.8
i0                                           0
i1                                           0
s                                            0
xu1.int04                                  1.8
z                                  1.07301e-08
xu1.net_1                            0.0222657
xu1.net_3                              1.28381
xu1.sel1_n                                 1.8
xu1.net_0                                  1.8
xu1.net_2                                  1.8
vfix_s#branch                                0
vfix_i1#branch                               0
vin#branch                                   0
vdd#branch                        -1.03345e-11

 Reference value :  5.30035e-08
 Reference value :  1.21955e-07
 Reference value :  1.77075e-07
 Reference value :  2.35659e-07
 Reference value :  2.90149e-07
No. of Data Rows : 68032

  Measurements for Transient Analysis

tplh                =  7.64144e-09 targ=  3.25469e-08 trig=  2.49055e-08
tphl                =  4.39544e-09 targ=  1.01112e-07 trig=  9.67165e-08
i_vdd_avg           =  -2.40463e-06 from=  1.00000e-08 to=  3.30004e-07
power_avg_uw        =  4.32833e+00


Total analysis time (seconds) = 1.88052

Total elapsed time (seconds) = 1.940 

Total DRAM available = 16384.000 MB.
DRAM currently available =  251.016 MB.
Maximum ngspice program size =   12.656 MB.
Current ngspice program size =   12.516 MB.

