
Note: No compatibility mode selected!


Circuit: GF180MCU library cell nand2_4 A1_to_ZN__A2=1

Doing analysis at TEMP = 25.000000 and TNOM = 27.000000

Using SPARSE 1.3 as Direct Linear Solver

Initial Transient Solution
--------------------------

Node                                   Voltage
----                                   -------
vdd                                        1.8
a1                                           0
a2                                         1.8
xu1.net_0_0                        1.86624e-10
zn                                         1.8
xu1.net_0_1                        1.86624e-10
xu1.net_0_2                        1.86624e-10
xu1.net_0_3                        1.86624e-10
vfix_a2#branch                               0
vin#branch                                   0
vdd#branch                         -7.3721e-12

 Reference value :  4.11075e-08
 Reference value :  9.17525e-08
 Reference value :  1.37608e-07
 Reference value :  1.88603e-07
 Reference value :  2.33893e-07
 Reference value :  2.81242e-07
 Reference value :  3.28152e-07
No. of Data Rows : 68032

  Measurements for Transient Analysis

tphl                =  8.54378e-11 targ=  2.40954e-08 trig=  2.40100e-08
tplh                =  1.00535e-10 targ=  9.41305e-08 trig=  9.40300e-08
i_vdd_avg           =  -1.10025e-07 from=  1.00000e-08 to=  3.30002e-07
power_avg_uw        =  1.98045e-01


Total analysis time (seconds) = 3.95375

Total elapsed time (seconds) = 4.009 

Total DRAM available = 16384.000 MB.
DRAM currently available =  123.531 MB.
Maximum ngspice program size =   12.812 MB.
Current ngspice program size =   12.688 MB.

