
Note: No compatibility mode selected!


Circuit: GF180MCU library cell aoi21_1 A1_to_ZN__A2=1,B=0

Doing analysis at TEMP = 125.000000 and TNOM = 27.000000

Using SPARSE 1.3 as Direct Linear Solver

Initial Transient Solution
--------------------------

Node                                   Voltage
----                                   -------
vdd                                       1.62
a1                                           0
a2                                        1.62
b                                            0
xu1.net_0                          1.46007e-08
zn                                        1.62
xu1.net_1                                 1.62
vfix_b#branch                                0
vfix_a2#branch                               0
vin#branch                                   0
vdd#branch                         -5.8898e-12

 Reference value :  1.08331e-07
 Reference value :  2.27117e-07
 Reference value :  3.34625e-07
No. of Data Rows : 68032

  Measurements for Transient Analysis

tphl                =  1.88349e-09 targ=  2.77605e-08 trig=  2.58770e-08
tplh                =  3.78149e-09 targ=  1.03412e-07 trig=  9.96310e-08
i_vdd_avg           =  -1.64983e-07 from=  1.00000e-08 to=  3.30000e-07
power_avg_uw        =  2.67273e-01


Total analysis time (seconds) = 0.936423

Total elapsed time (seconds) = 0.991 

Total DRAM available = 16384.000 MB.
DRAM currently available =  139.219 MB.
Maximum ngspice program size =   13.312 MB.
Current ngspice program size =   13.312 MB.

