
Note: No compatibility mode selected!


Circuit: GF180MCU library cell inv_4 I_to_ZN

Doing analysis at TEMP = -40.000000 and TNOM = 27.000000

Using SPARSE 1.3 as Direct Linear Solver

Initial Transient Solution
--------------------------

Node                                   Voltage
----                                   -------
vdd                                       1.98
i                                            0
zn                                        1.98
vin#branch                                   0
vdd#branch                        -7.97006e-12

 Reference value :  6.82459e-08
 Reference value :  1.59350e-07
 Reference value :  2.50711e-07
No. of Data Rows : 68036

  Measurements for Transient Analysis

tphl                =  2.92962e-10 targ=  2.43030e-08 trig=  2.40100e-08
tplh                =  6.22186e-10 targ=  9.46522e-08 trig=  9.40300e-08
i_vdd_avg           =  -1.84857e-06 from=  1.00000e-08 to=  3.30000e-07
power_avg_uw        =  3.66017e+00


Total analysis time (seconds) = 2.16617

Total elapsed time (seconds) = 2.228 

Total DRAM available = 16384.000 MB.
DRAM currently available =   93.438 MB.
Maximum ngspice program size =   18.547 MB.
Current ngspice program size =   18.547 MB.

