
Note: No compatibility mode selected!


Circuit: XOR2 seed characterization sample 6220081

Doing analysis at TEMP = 6.863040 and TNOM = 27.000000

Using SPARSE 1.3 as Direct Linear Solver

Initial Transient Solution
--------------------------

Node                                   Voltage
----                                   -------
vdd                                    1.79096
in                                           0
b                                      1.79096
abar                                   1.79096
bbar                               8.15846e-10
out                                    1.79096
vb#branch                                    0
vin#branch                         2.07507e-12
vdd#branch                        -1.12941e-11

 Reference value :  1.12695e-08
 Reference value :  4.23115e-08
 Reference value :  7.58941e-08
 Reference value :  1.10316e-07
No. of Data Rows : 60041

  Measurements for Transient Analysis

tphl                =  2.31975e-10 targ=  2.36225e-09 trig=  2.13027e-09
tplh                =  2.48516e-10 targ=  2.26393e-08 trig=  2.23908e-08
i_vdd_avg           =  -5.90864e-06 from=  5.00000e-09 to=  1.10000e-07
power_avg_uw        =  1.05821e+01


Total analysis time (seconds) = 0.939218

Total elapsed time (seconds) = 1.060 

Total DRAM available = 16384.000 MB.
DRAM currently available =  112.344 MB.
Maximum ngspice program size =   12.797 MB.
Current ngspice program size =   12.797 MB.

