
Note: No compatibility mode selected!


Circuit: NOR2 seed characterization sample 6220067

Doing analysis at TEMP = 52.489700 and TNOM = 27.000000

Using SPARSE 1.3 as Direct Linear Solver

Initial Transient Solution
--------------------------

Node                                   Voltage
----                                   -------
vdd                                    1.94198
in                                           0
out                                    1.94198
pmid                                   1.94198
vin#branch                                   0
vdd#branch                        -8.66138e-12

 Reference value :  3.33143e-08
 Reference value :  8.70996e-08
No. of Data Rows : 60041

  Measurements for Transient Analysis

tphl                =  9.29604e-11 targ=  2.21328e-09 trig=  2.12032e-09
tplh                =  2.86847e-10 targ=  2.26478e-08 trig=  2.23610e-08
i_vdd_avg           =  -1.62633e-06 from=  5.00000e-09 to=  1.10000e-07
power_avg_uw        =  3.15829e+00


Total analysis time (seconds) = 0.597789

Total elapsed time (seconds) = 0.704 

Total DRAM available = 16384.000 MB.
DRAM currently available =   91.203 MB.
Maximum ngspice program size =   15.594 MB.
Current ngspice program size =   15.594 MB.

