
Note: No compatibility mode selected!


Circuit: NOR2 seed characterization sample 6220069

Doing analysis at TEMP = 48.698000 and TNOM = 27.000000

Using SPARSE 1.3 as Direct Linear Solver

Initial Transient Solution
--------------------------

Node                                   Voltage
----                                   -------
vdd                                    1.88466
in                                           0
out                                    1.88466
pmid                                   1.88466
vin#branch                                   0
vdd#branch                        -1.30447e-11

 Reference value :  3.21695e-08
 Reference value :  8.53643e-08
No. of Data Rows : 60047

  Measurements for Transient Analysis

tphl                =  7.39446e-11 targ=  2.11158e-09 trig=  2.03763e-09
tplh                =  2.49087e-10 targ=  2.23620e-08 trig=  2.21129e-08
i_vdd_avg           =  -4.39110e-06 from=  5.00000e-09 to=  1.10002e-07
power_avg_uw        =  8.27572e+00


Total analysis time (seconds) = 0.608786

Total elapsed time (seconds) = 0.712 

Total DRAM available = 16384.000 MB.
DRAM currently available =   91.203 MB.
Maximum ngspice program size =   15.469 MB.
Current ngspice program size =   15.469 MB.

