
Note: No compatibility mode selected!


Circuit: XOR2 seed characterization sample 6220072

Doing analysis at TEMP = 36.187000 and TNOM = 27.000000

Using SPARSE 1.3 as Direct Linear Solver

Initial Transient Solution
--------------------------

Node                                   Voltage
----                                   -------
vdd                                    1.70355
in                                           0
b                                      1.70355
abar                                   1.70355
bbar                               1.61608e-09
out                                    1.70355
vb#branch                                    0
vin#branch                         3.32173e-12
vdd#branch                        -1.31307e-11

 Reference value :  2.08578e-08
 Reference value :  5.21198e-08
 Reference value :  7.56147e-08
 Reference value :  1.09225e-07
No. of Data Rows : 60041

  Measurements for Transient Analysis

tphl                =  3.04177e-10 targ=  2.52259e-09 trig=  2.21842e-09
tplh                =  3.21314e-10 targ=  2.29766e-08 trig=  2.26553e-08
i_vdd_avg           =  -3.42697e-06 from=  5.00000e-09 to=  1.10001e-07
power_avg_uw        =  5.83801e+00


Total analysis time (seconds) = 0.995762

Total elapsed time (seconds) = 1.082 

Total DRAM available = 16384.000 MB.
DRAM currently available =   91.203 MB.
Maximum ngspice program size =   14.375 MB.
Current ngspice program size =   14.375 MB.

