
Note: No compatibility mode selected!


Circuit: XOR2 seed characterization sample 4123005

Doing analysis at TEMP = -6.258320 and TNOM = 27.000000

Using SPARSE 1.3 as Direct Linear Solver

Initial Transient Solution
--------------------------

Node                                   Voltage
----                                   -------
vdd                                    1.85788
in                                           0
b                                      1.85788
abar                                   1.85788
bbar                               2.96547e-09
out                                    1.85788
vb#branch                                    0
vin#branch                         1.88527e-12
vdd#branch                        -1.12374e-11

 Reference value :  2.30619e-08
 Reference value :  5.48205e-08
 Reference value :  8.91385e-08
No. of Data Rows : 60047

  Measurements for Transient Analysis

tphl                =  3.81090e-10 targ=  2.46982e-09 trig=  2.08873e-09
tplh                =  4.79732e-10 targ=  2.27459e-08 trig=  2.22662e-08
i_vdd_avg           =  -3.70642e-06 from=  5.00000e-09 to=  1.10002e-07
power_avg_uw        =  6.88608e+00


Total analysis time (seconds) = 0.869405

Total elapsed time (seconds) = 0.948 

Total DRAM available = 16384.000 MB.
DRAM currently available =  209.078 MB.
Maximum ngspice program size =   12.578 MB.
Current ngspice program size =   11.906 MB.

