
Note: No compatibility mode selected!


Circuit: NAND2 seed characterization sample 4123017

Doing analysis at TEMP = 87.408800 and TNOM = 27.000000

Using SPARSE 1.3 as Direct Linear Solver

Initial Transient Solution
--------------------------

Node                                   Voltage
----                                   -------
vdd                                    1.71804
in                                           0
out                                    1.71804
nmid                                 0.0513816
vin#branch                                   0
vdd#branch                         -1.3699e-11

 Reference value :  4.03346e-08
 Reference value :  9.40718e-08
No. of Data Rows : 60041

  Measurements for Transient Analysis

tphl                =  4.25300e-10 targ=  2.67270e-09 trig=  2.24740e-09
tplh                =  2.11281e-10 targ=  2.29535e-08 trig=  2.27422e-08
i_vdd_avg           =  -6.45080e-06 from=  5.00000e-09 to=  1.10001e-07
power_avg_uw        =  1.10827e+01


Total analysis time (seconds) = 0.541409

Total elapsed time (seconds) = 0.617 

Total DRAM available = 16384.000 MB.
DRAM currently available =  177.031 MB.
Maximum ngspice program size =   12.562 MB.
Current ngspice program size =   11.750 MB.

