
Note: No compatibility mode selected!


Circuit: NOR2 seed characterization sample 4123046

Doing analysis at TEMP = 29.631000 and TNOM = 27.000000

Using SPARSE 1.3 as Direct Linear Solver

Initial Transient Solution
--------------------------

Node                                   Voltage
----                                   -------
vdd                                    1.94088
in                                           0
out                                    1.94088
pmid                                   1.94088
vin#branch                                   0
vdd#branch                        -6.65604e-12

 Reference value :  3.85812e-08
 Reference value :  9.27471e-08
No. of Data Rows : 60044

  Measurements for Transient Analysis

tphl                =  1.54459e-10 targ=  2.38751e-09 trig=  2.23306e-09
tplh                =  3.87228e-10 targ=  2.30864e-08 trig=  2.26992e-08
i_vdd_avg           =  -6.53922e-06 from=  5.00000e-09 to=  1.10001e-07
power_avg_uw        =  1.26919e+01


Total analysis time (seconds) = 0.527784

Total elapsed time (seconds) = 0.606 

Total DRAM available = 16384.000 MB.
DRAM currently available =  131.438 MB.
Maximum ngspice program size =   12.562 MB.
Current ngspice program size =   11.656 MB.

