
Note: No compatibility mode selected!


Circuit: XOR2 seed characterization sample 4123006

Doing analysis at TEMP = 49.610800 and TNOM = 27.000000

Using SPARSE 1.3 as Direct Linear Solver

Initial Transient Solution
--------------------------

Node                                   Voltage
----                                   -------
vdd                                    1.87889
in                                           0
b                                      1.87889
abar                                   1.87889
bbar                               5.67952e-09
out                                    1.87889
vb#branch                                    0
vin#branch                         3.02966e-12
vdd#branch                        -1.34715e-11

 Reference value :  2.32090e-08
 Reference value :  5.48740e-08
 Reference value :  8.90620e-08
No. of Data Rows : 60041

  Measurements for Transient Analysis

tphl                =  2.20618e-10 targ=  2.40411e-09 trig=  2.18349e-09
tplh                =  3.24194e-10 targ=  2.28747e-08 trig=  2.25505e-08
i_vdd_avg           =  -9.03764e-07 from=  5.00000e-09 to=  1.10001e-07
power_avg_uw        =  1.69807e+00


Total analysis time (seconds) = 0.872164

Total elapsed time (seconds) = 0.950 

Total DRAM available = 16384.000 MB.
DRAM currently available =  213.406 MB.
Maximum ngspice program size =   12.562 MB.
Current ngspice program size =   12.031 MB.

