
Note: No compatibility mode selected!


Circuit: NOR2 seed characterization sample 4123015

Doing analysis at TEMP = 53.687900 and TNOM = 27.000000

Using SPARSE 1.3 as Direct Linear Solver

Initial Transient Solution
--------------------------

Node                                   Voltage
----                                   -------
vdd                                    1.73955
in                                           0
out                                    1.73955
pmid                                   1.73955
vin#branch                                   0
vdd#branch                        -1.11761e-11

 Reference value :  3.94407e-08
 Reference value :  9.46359e-08
No. of Data Rows : 60041

  Measurements for Transient Analysis

tphl                =  1.22451e-10 targ=  2.14188e-09 trig=  2.01943e-09
tplh                =  4.96777e-10 targ=  2.25551e-08 trig=  2.20583e-08
i_vdd_avg           =  -5.24206e-06 from=  5.00000e-09 to=  1.10001e-07
power_avg_uw        =  9.11883e+00


Total analysis time (seconds) = 0.53821

Total elapsed time (seconds) = 0.615 

Total DRAM available = 16384.000 MB.
DRAM currently available =  191.750 MB.
Maximum ngspice program size =   12.562 MB.
Current ngspice program size =   12.125 MB.

