
Note: No compatibility mode selected!


Circuit: XOR2 seed characterization sample 4123036

Doing analysis at TEMP = 70.136700 and TNOM = 27.000000

Using SPARSE 1.3 as Direct Linear Solver

Initial Transient Solution
--------------------------

Node                                   Voltage
----                                   -------
vdd                                    1.72102
in                                           0
b                                      1.72102
abar                                   1.72102
bbar                               2.30603e-09
out                                    1.72102
vb#branch                                    0
vin#branch                          2.1628e-11
vdd#branch                         -4.5778e-11

 Reference value :  2.42149e-08
 Reference value :  5.74039e-08
 Reference value :  8.96279e-08
No. of Data Rows : 60041

  Measurements for Transient Analysis

tphl                =  3.88630e-10 targ=  2.49010e-09 trig=  2.10147e-09
tplh                =  4.60642e-10 targ=  2.27651e-08 trig=  2.23044e-08
i_vdd_avg           =  -6.97171e-06 from=  5.00000e-09 to=  1.10001e-07
power_avg_uw        =  1.19984e+01


Total analysis time (seconds) = 0.882819

Total elapsed time (seconds) = 0.963 

Total DRAM available = 16384.000 MB.
DRAM currently available =  104.406 MB.
Maximum ngspice program size =   12.859 MB.
Current ngspice program size =   12.016 MB.

