
Note: No compatibility mode selected!


Circuit: XOR2 seed characterization sample 4123030

Doing analysis at TEMP = 94.641300 and TNOM = 27.000000

Using SPARSE 1.3 as Direct Linear Solver

Initial Transient Solution
--------------------------

Node                                   Voltage
----                                   -------
vdd                                     1.8962
in                                           0
b                                       1.8962
abar                                    1.8962
bbar                               7.46796e-09
out                                     1.8962
vb#branch                                    0
vin#branch                         6.99027e-11
vdd#branch                         -1.3212e-10

 Reference value :  2.43864e-08
 Reference value :  5.86837e-08
 Reference value :  9.42177e-08
No. of Data Rows : 60041

  Measurements for Transient Analysis

tphl                =  3.41969e-10 targ=  2.49132e-09 trig=  2.14935e-09
tplh                =  3.68933e-10 targ=  2.28170e-08 trig=  2.24481e-08
i_vdd_avg           =  -5.23063e-06 from=  5.00000e-09 to=  1.10000e-07
power_avg_uw        =  9.91832e+00


Total analysis time (seconds) = 0.835916

Total elapsed time (seconds) = 0.911 

Total DRAM available = 16384.000 MB.
DRAM currently available =   96.922 MB.
Maximum ngspice program size =   12.578 MB.
Current ngspice program size =   12.188 MB.

