
Note: No compatibility mode selected!


Circuit: NOR2 seed characterization sample 4123026

Doing analysis at TEMP = -16.090800 and TNOM = 27.000000

Using SPARSE 1.3 as Direct Linear Solver

Initial Transient Solution
--------------------------

Node                                   Voltage
----                                   -------
vdd                                     1.6963
in                                           0
out                                     1.6963
pmid                                    1.6963
vin#branch                                   0
vdd#branch                        -3.42265e-12

 Reference value :  3.85283e-08
 Reference value :  9.11676e-08
No. of Data Rows : 60041

  Measurements for Transient Analysis

tphl                =  1.93397e-10 targ=  2.35572e-09 trig=  2.16232e-09
tplh                =  6.30167e-10 targ=  2.31171e-08 trig=  2.24870e-08
i_vdd_avg           =  -3.37030e-06 from=  5.00000e-09 to=  1.10000e-07
power_avg_uw        =  5.71705e+00


Total analysis time (seconds) = 0.551886

Total elapsed time (seconds) = 0.631 

Total DRAM available = 16384.000 MB.
DRAM currently available =  163.984 MB.
Maximum ngspice program size =   12.562 MB.
Current ngspice program size =   11.625 MB.

