
Note: No compatibility mode selected!


Circuit: INV seed characterization sample 4123007

Doing analysis at TEMP = -8.361150 and TNOM = 27.000000

Using SPARSE 1.3 as Direct Linear Solver

Initial Transient Solution
--------------------------

Node                                   Voltage
----                                   -------
vdd                                    1.84321
in                                           0
out                                    1.84321
vin#branch                                   0
vdd#branch                        -1.86458e-12

 Reference value :  6.48164e-08
No. of Data Rows : 60041

  Measurements for Transient Analysis

tphl                =  4.07958e-10 targ=  2.59231e-09 trig=  2.18435e-09
tplh                =  4.78397e-10 targ=  2.30314e-08 trig=  2.25530e-08
i_vdd_avg           =  -5.23448e-06 from=  5.00000e-09 to=  1.10000e-07
power_avg_uw        =  9.64825e+00


Total analysis time (seconds) = 0.324128

Total elapsed time (seconds) = 0.400 

Total DRAM available = 16384.000 MB.
DRAM currently available =  218.906 MB.
Maximum ngspice program size =   12.562 MB.
Current ngspice program size =   12.031 MB.

