
Note: No compatibility mode selected!


Circuit: NOR2 seed characterization sample 4123002

Doing analysis at TEMP = 78.752400 and TNOM = 27.000000

Using SPARSE 1.3 as Direct Linear Solver

Initial Transient Solution
--------------------------

Node                                   Voltage
----                                   -------
vdd                                    1.76607
in                                           0
out                                    1.76607
pmid                                   1.76607
vin#branch                                   0
vdd#branch                        -1.23286e-11

 Reference value :  4.81741e-08
 Reference value :  1.10145e-07
No. of Data Rows : 60047

  Measurements for Transient Analysis

tphl                =  5.82452e-10 targ=  2.76801e-09 trig=  2.18556e-09
tplh                =  2.60780e-09 targ=  2.51645e-08 trig=  2.25567e-08
i_vdd_avg           =  -5.07844e-06 from=  5.00000e-09 to=  1.10001e-07
power_avg_uw        =  8.96887e+00


Total analysis time (seconds) = 0.465188

Total elapsed time (seconds) = 0.533 

Total DRAM available = 16384.000 MB.
DRAM currently available =  212.125 MB.
Maximum ngspice program size =   12.609 MB.
Current ngspice program size =   11.703 MB.

