
Note: No compatibility mode selected!


Circuit: INV seed characterization sample 4211025

Doing analysis at TEMP = -12.884000 and TNOM = 27.000000

Using SPARSE 1.3 as Direct Linear Solver

Initial Transient Solution
--------------------------

Node                                   Voltage
----                                   -------
vdd                                    1.97427
in                                           0
out                                    1.97427
vin#branch                                   0
vdd#branch                        -1.98528e-12

 Reference value :  6.97707e-08
No. of Data Rows : 60044

  Measurements for Transient Analysis

tphl                =  1.89638e-10 targ=  2.26256e-09 trig=  2.07292e-09
tplh                =  2.27709e-10 targ=  2.24465e-08 trig=  2.22188e-08
i_vdd_avg           =  -5.22925e-06 from=  5.00000e-09 to=  1.10001e-07
power_avg_uw        =  1.03240e+01


Total analysis time (seconds) = 0.287199

Total elapsed time (seconds) = 0.367 

Total DRAM available = 16384.000 MB.
DRAM currently available =  227.719 MB.
Maximum ngspice program size =   13.344 MB.
Current ngspice program size =   12.484 MB.

