
Note: No compatibility mode selected!


Circuit: NOR2 seed characterization sample 4211011

Doing analysis at TEMP = 21.809800 and TNOM = 27.000000

Using SPARSE 1.3 as Direct Linear Solver

Initial Transient Solution
--------------------------

Node                                   Voltage
----                                   -------
vdd                                    1.85761
in                                           0
out                                    1.85761
pmid                                   1.85761
vin#branch                                   0
vdd#branch                        -3.76006e-12

 Reference value :  4.58855e-08
 Reference value :  1.06108e-07
No. of Data Rows : 60041

  Measurements for Transient Analysis

tphl                =  2.68413e-10 targ=  2.44467e-09 trig=  2.17626e-09
tplh                =  1.16353e-09 targ=  2.36923e-08 trig=  2.25288e-08
i_vdd_avg           =  -4.72101e-06 from=  5.00000e-09 to=  1.10000e-07
power_avg_uw        =  8.76980e+00


Total analysis time (seconds) = 0.479914

Total elapsed time (seconds) = 0.551 

Total DRAM available = 16384.000 MB.
DRAM currently available =  240.062 MB.
Maximum ngspice program size =   12.609 MB.
Current ngspice program size =   11.641 MB.

