
Note: No compatibility mode selected!


Circuit: XOR2 seed characterization sample 4211028

Doing analysis at TEMP = 15.313800 and TNOM = 27.000000

Using SPARSE 1.3 as Direct Linear Solver

Initial Transient Solution
--------------------------

Node                                   Voltage
----                                   -------
vdd                                    1.84429
in                                           0
b                                      1.84429
abar                                   1.84429
bbar                               2.54385e-09
out                                    1.84429
vb#branch                                    0
vin#branch                         1.86608e-12
vdd#branch                        -1.11464e-11

 Reference value :  2.52923e-08
 Reference value :  6.10006e-08
 Reference value :  9.85566e-08
No. of Data Rows : 60044

  Measurements for Transient Analysis

tphl                =  4.60134e-10 targ=  2.57495e-09 trig=  2.11482e-09
tplh                =  4.79363e-10 targ=  2.28238e-08 trig=  2.23444e-08
i_vdd_avg           =  -4.53297e-06 from=  5.00000e-09 to=  1.10000e-07
power_avg_uw        =  8.36012e+00


Total analysis time (seconds) = 0.7891

Total elapsed time (seconds) = 0.872 

Total DRAM available = 16384.000 MB.
DRAM currently available =  251.109 MB.
Maximum ngspice program size =   13.781 MB.
Current ngspice program size =   13.781 MB.

