
Note: No compatibility mode selected!


Circuit: NAND2 seed characterization sample 4211046

Doing analysis at TEMP = 87.990400 and TNOM = 27.000000

Using SPARSE 1.3 as Direct Linear Solver

Initial Transient Solution
--------------------------

Node                                   Voltage
----                                   -------
vdd                                     1.6984
in                                           0
out                                     1.6984
nmid                                 0.0399766
vin#branch                                   0
vdd#branch                        -2.01771e-12

 Reference value :  4.70857e-08
 Reference value :  1.08370e-07
No. of Data Rows : 60041

  Measurements for Transient Analysis

tphl                =  9.25501e-10 targ=  3.06686e-09 trig=  2.14136e-09
tplh                =  4.60810e-10 targ=  2.28849e-08 trig=  2.24241e-08
i_vdd_avg           =  -3.23385e-06 from=  5.00000e-09 to=  1.10000e-07
power_avg_uw        =  5.49237e+00


Total analysis time (seconds) = 0.47078

Total elapsed time (seconds) = 0.540 

Total DRAM available = 16384.000 MB.
DRAM currently available =  228.422 MB.
Maximum ngspice program size =   12.594 MB.
Current ngspice program size =   12.125 MB.

