
Note: No compatibility mode selected!


Circuit: NAND2 seed characterization sample 4211006

Doing analysis at TEMP = 16.376500 and TNOM = 27.000000

Using SPARSE 1.3 as Direct Linear Solver

Initial Transient Solution
--------------------------

Node                                   Voltage
----                                   -------
vdd                                    1.77027
in                                           0
out                                    1.77027
nmid                                0.00526676
vin#branch                                   0
vdd#branch                        -1.79517e-12

 Reference value :  4.70542e-08
 Reference value :  1.07671e-07
No. of Data Rows : 60047

  Measurements for Transient Analysis

tphl                =  2.28167e-10 targ=  2.32577e-09 trig=  2.09760e-09
tplh                =  1.52685e-10 targ=  2.24455e-08 trig=  2.22928e-08
i_vdd_avg           =  -2.36667e-06 from=  5.00000e-09 to=  1.10001e-07
power_avg_uw        =  4.18964e+00


Total analysis time (seconds) = 0.476513

Total elapsed time (seconds) = 0.545 

Total DRAM available = 16384.000 MB.
DRAM currently available =  240.094 MB.
Maximum ngspice program size =   12.594 MB.
Current ngspice program size =   12.000 MB.

