
Note: No compatibility mode selected!


Circuit: NOR2 seed characterization sample 4211031

Doing analysis at TEMP = 86.981100 and TNOM = 27.000000

Using SPARSE 1.3 as Direct Linear Solver

Initial Transient Solution
--------------------------

Node                                   Voltage
----                                   -------
vdd                                    1.67994
in                                           0
out                                    1.67994
pmid                                   1.67994
vin#branch                                   0
vdd#branch                        -8.30035e-12

 Reference value :  4.53547e-08
 Reference value :  1.05904e-07
No. of Data Rows : 60044

  Measurements for Transient Analysis

tphl                =  7.22702e-11 targ=  2.09413e-09 trig=  2.02186e-09
tplh                =  2.65137e-10 targ=  2.23307e-08 trig=  2.20656e-08
i_vdd_avg           =  -1.70004e-06 from=  5.00000e-09 to=  1.10000e-07
power_avg_uw        =  2.85597e+00


Total analysis time (seconds) = 0.481247

Total elapsed time (seconds) = 0.552 

Total DRAM available = 16384.000 MB.
DRAM currently available =  227.422 MB.
Maximum ngspice program size =   12.828 MB.
Current ngspice program size =   12.203 MB.

