
Note: No compatibility mode selected!


Circuit: INV seed characterization sample 4211041

Doing analysis at TEMP = 0.997329 and TNOM = 27.000000

Using SPARSE 1.3 as Direct Linear Solver

Initial Transient Solution
--------------------------

Node                                   Voltage
----                                   -------
vdd                                    1.80376
in                                           0
out                                    1.80376
vin#branch                                   0
vdd#branch                        -1.81932e-12

 Reference value :  7.34769e-08
No. of Data Rows : 60041

  Measurements for Transient Analysis

tphl                =  1.47062e-10 targ=  2.20354e-09 trig=  2.05648e-09
tplh                =  1.53253e-10 targ=  2.23227e-08 trig=  2.21694e-08
i_vdd_avg           =  -4.09752e-06 from=  5.00000e-09 to=  1.10001e-07
power_avg_uw        =  7.39094e+00


Total analysis time (seconds) = 0.293662

Total elapsed time (seconds) = 0.363 

Total DRAM available = 16384.000 MB.
DRAM currently available =  225.609 MB.
Maximum ngspice program size =   12.562 MB.
Current ngspice program size =   11.656 MB.

