
Note: No compatibility mode selected!


Circuit: NOR2 seed characterization sample 4211007

Doing analysis at TEMP = -12.914100 and TNOM = 27.000000

Using SPARSE 1.3 as Direct Linear Solver

Initial Transient Solution
--------------------------

Node                                   Voltage
----                                   -------
vdd                                     1.7235
in                                           0
out                                     1.7235
pmid                                    1.7235
vin#branch                                   0
vdd#branch                        -3.46819e-12

 Reference value :  4.63291e-08
 Reference value :  1.06269e-07
No. of Data Rows : 60044

  Measurements for Transient Analysis

tphl                =  1.36582e-10 targ=  2.18962e-09 trig=  2.05304e-09
tplh                =  5.32811e-10 targ=  2.26919e-08 trig=  2.21591e-08
i_vdd_avg           =  -4.12389e-06 from=  5.00000e-09 to=  1.10001e-07
power_avg_uw        =  7.10752e+00


Total analysis time (seconds) = 0.481247

Total elapsed time (seconds) = 0.550 

Total DRAM available = 16384.000 MB.
DRAM currently available =  240.094 MB.
Maximum ngspice program size =   12.562 MB.
Current ngspice program size =   11.906 MB.

