
Note: No compatibility mode selected!


Circuit: XOR2 seed characterization sample 4211044

Doing analysis at TEMP = 57.404600 and TNOM = 27.000000

Using SPARSE 1.3 as Direct Linear Solver

Initial Transient Solution
--------------------------

Node                                   Voltage
----                                   -------
vdd                                    1.88186
in                                           0
b                                      1.88186
abar                                   1.88186
bbar                                3.9832e-09
out                                    1.88186
vb#branch                                    0
vin#branch                         2.17256e-12
vdd#branch                        -1.18415e-11

 Reference value :  2.68632e-08
 Reference value :  6.21931e-08
 Reference value :  9.98371e-08
No. of Data Rows : 60044

  Measurements for Transient Analysis

tphl                =  7.40099e-10 targ=  2.81414e-09 trig=  2.07404e-09
tplh                =  1.03219e-09 targ=  2.32543e-08 trig=  2.22221e-08
i_vdd_avg           =  -5.78287e-06 from=  5.00000e-09 to=  1.10001e-07
power_avg_uw        =  1.08826e+01


Total analysis time (seconds) = 0.791831

Total elapsed time (seconds) = 0.863 

Total DRAM available = 16384.000 MB.
DRAM currently available =  254.750 MB.
Maximum ngspice program size =   12.734 MB.
Current ngspice program size =   12.734 MB.

