
Note: No compatibility mode selected!


Circuit: INV seed characterization sample 4211037

Doing analysis at TEMP = -5.766380 and TNOM = 27.000000

Using SPARSE 1.3 as Direct Linear Solver

Initial Transient Solution
--------------------------

Node                                   Voltage
----                                   -------
vdd                                    1.83556
in                                           0
out                                    1.83556
vin#branch                                   0
vdd#branch                        -1.84659e-12

 Reference value :  7.42148e-08
No. of Data Rows : 60041

  Measurements for Transient Analysis

tphl                =  1.33245e-10 targ=  2.32569e-09 trig=  2.19245e-09
tplh                =  1.67620e-10 targ=  2.27450e-08 trig=  2.25773e-08
i_vdd_avg           =  -7.29468e-07 from=  5.00000e-09 to=  1.10001e-07
power_avg_uw        =  1.33898e+00


Total analysis time (seconds) = 0.292057

Total elapsed time (seconds) = 0.360 

Total DRAM available = 16384.000 MB.
DRAM currently available =  217.359 MB.
Maximum ngspice program size =   12.562 MB.
Current ngspice program size =   11.688 MB.

