
Note: No compatibility mode selected!


Circuit: NAND2 seed characterization sample 4211030

Doing analysis at TEMP = 35.562000 and TNOM = 27.000000

Using SPARSE 1.3 as Direct Linear Solver

Initial Transient Solution
--------------------------

Node                                   Voltage
----                                   -------
vdd                                     1.7116
in                                           0
out                                     1.7116
nmid                                 0.0204846
vin#branch                                   0
vdd#branch                        -1.78992e-12

 Reference value :  4.81332e-08
 Reference value :  1.10191e-07
No. of Data Rows : 60044

  Measurements for Transient Analysis

tphl                =  1.82198e-10 targ=  2.31630e-09 trig=  2.13410e-09
tplh                =  1.37213e-10 targ=  2.25395e-08 trig=  2.24023e-08
i_vdd_avg           =  -1.74109e-06 from=  5.00000e-09 to=  1.10001e-07
power_avg_uw        =  2.98005e+00


Total analysis time (seconds) = 0.464452

Total elapsed time (seconds) = 0.533 

Total DRAM available = 16384.000 MB.
DRAM currently available =  227.422 MB.
Maximum ngspice program size =   12.562 MB.
Current ngspice program size =   11.594 MB.

