
Note: No compatibility mode selected!


Circuit: INV seed characterization sample 4211017

Doing analysis at TEMP = 18.176100 and TNOM = 27.000000

Using SPARSE 1.3 as Direct Linear Solver

Initial Transient Solution
--------------------------

Node                                   Voltage
----                                   -------
vdd                                    1.76291
in                                           0
out                                    1.76291
vin#branch                                   0
vdd#branch                        -1.80423e-12

 Reference value :  7.41454e-08
No. of Data Rows : 60047

  Measurements for Transient Analysis

tphl                =  2.50225e-10 targ=  2.43183e-09 trig=  2.18161e-09
tplh                =  3.12518e-10 targ=  2.28573e-08 trig=  2.25448e-08
i_vdd_avg           =  -5.41897e-06 from=  5.00000e-09 to=  1.10001e-07
power_avg_uw        =  9.55316e+00


Total analysis time (seconds) = 0.29194

Total elapsed time (seconds) = 0.360 

Total DRAM available = 16384.000 MB.
DRAM currently available =  218.000 MB.
Maximum ngspice program size =   12.562 MB.
Current ngspice program size =   11.688 MB.

