
Note: No compatibility mode selected!


Circuit: XOR2 seed characterization sample 4211020

Doing analysis at TEMP = 28.164800 and TNOM = 27.000000

Using SPARSE 1.3 as Direct Linear Solver

Initial Transient Solution
--------------------------

Node                                   Voltage
----                                   -------
vdd                                    1.72979
in                                           0
b                                      1.72979
abar                                   1.72979
bbar                               1.98119e-09
out                                    1.72979
vb#branch                                    0
vin#branch                         1.78962e-12
vdd#branch                        -1.05268e-11

 Reference value :  2.68689e-08
 Reference value :  6.22669e-08
 Reference value :  9.96799e-08
No. of Data Rows : 60041

  Measurements for Transient Analysis

tphl                =  5.07750e-10 targ=  2.56522e-09 trig=  2.05747e-09
tplh                =  5.63183e-10 targ=  2.27356e-08 trig=  2.21724e-08
i_vdd_avg           =  -5.97469e-06 from=  5.00000e-09 to=  1.10001e-07
power_avg_uw        =  1.03350e+01


Total analysis time (seconds) = 0.794106

Total elapsed time (seconds) = 0.865 

Total DRAM available = 16384.000 MB.
DRAM currently available =  250.172 MB.
Maximum ngspice program size =   13.250 MB.
Current ngspice program size =   13.250 MB.

