
Note: No compatibility mode selected!


Circuit: NAND2 seed characterization sample 4211018

Doing analysis at TEMP = 53.819100 and TNOM = 27.000000

Using SPARSE 1.3 as Direct Linear Solver

Initial Transient Solution
--------------------------

Node                                   Voltage
----                                   -------
vdd                                      1.885
in                                           0
out                                      1.885
nmid                                 0.0290468
vin#branch                                   0
vdd#branch                        -2.00717e-12

 Reference value :  4.51906e-08
 Reference value :  1.06812e-07
No. of Data Rows : 60044

  Measurements for Transient Analysis

tphl                =  5.73074e-10 targ=  2.79488e-09 trig=  2.22181e-09
tplh                =  3.63828e-10 targ=  2.30292e-08 trig=  2.26654e-08
i_vdd_avg           =  -5.05069e-06 from=  5.00000e-09 to=  1.10000e-07
power_avg_uw        =  9.52055e+00


Total analysis time (seconds) = 0.471778

Total elapsed time (seconds) = 0.548 

Total DRAM available = 16384.000 MB.
DRAM currently available =  230.188 MB.
Maximum ngspice program size =   13.234 MB.
Current ngspice program size =   13.234 MB.

