
Note: No compatibility mode selected!


Circuit: INV seed characterization sample 4211021

Doing analysis at TEMP = 72.886200 and TNOM = 27.000000

Using SPARSE 1.3 as Direct Linear Solver

Initial Transient Solution
--------------------------

Node                                   Voltage
----                                   -------
vdd                                    1.74336
in                                           0
out                                    1.74336
vin#branch                                   0
vdd#branch                        -2.20126e-12

 Reference value :  6.64720e-08
No. of Data Rows : 60041

  Measurements for Transient Analysis

tphl                =  2.80392e-10 targ=  2.48465e-09 trig=  2.20426e-09
tplh                =  2.87032e-10 targ=  2.28998e-08 trig=  2.26128e-08
i_vdd_avg           =  -1.43150e-06 from=  5.00000e-09 to=  1.10000e-07
power_avg_uw        =  2.49562e+00


Total analysis time (seconds) = 0.294875

Total elapsed time (seconds) = 0.382 

Total DRAM available = 16384.000 MB.
DRAM currently available =  214.766 MB.
Maximum ngspice program size =   13.266 MB.
Current ngspice program size =   13.266 MB.

