
Note: No compatibility mode selected!


Circuit: INV seed characterization sample 4211045

Doing analysis at TEMP = -3.479490 and TNOM = 27.000000

Using SPARSE 1.3 as Direct Linear Solver

Initial Transient Solution
--------------------------

Node                                   Voltage
----                                   -------
vdd                                     1.8255
in                                           0
out                                     1.8255
vin#branch                                   0
vdd#branch                        -1.83734e-12

 Reference value :  7.23571e-08
No. of Data Rows : 60047

  Measurements for Transient Analysis

tphl                =  2.20003e-10 targ=  2.44652e-09 trig=  2.22652e-09
tplh                =  2.92375e-10 targ=  2.29719e-08 trig=  2.26796e-08
i_vdd_avg           =  -2.20812e-06 from=  5.00000e-09 to=  1.10001e-07
power_avg_uw        =  4.03093e+00


Total analysis time (seconds) = 0.296819

Total elapsed time (seconds) = 0.366 

Total DRAM available = 16384.000 MB.
DRAM currently available =  221.203 MB.
Maximum ngspice program size =   12.562 MB.
Current ngspice program size =   11.656 MB.

