
Note: No compatibility mode selected!


Circuit: NOR2 seed characterization sample 4412018

Doing analysis at TEMP = 67.892100 and TNOM = 27.000000

Using SPARSE 1.3 as Direct Linear Solver

Initial Transient Solution
--------------------------

Node                                   Voltage
----                                   -------
vdd                                    1.87913
in                                           0
out                                    1.87913
pmid                                   1.87913
vin#branch                                   0
vdd#branch                        -4.58032e-12

 Reference value :  4.63447e-08
 Reference value :  1.08552e-07
No. of Data Rows : 60044

  Measurements for Transient Analysis

tphl                =  1.63913e-10 targ=  2.29975e-09 trig=  2.13584e-09
tplh                =  4.66173e-10 targ=  2.28737e-08 trig=  2.24075e-08
i_vdd_avg           =  -2.09782e-06 from=  5.00000e-09 to=  1.10000e-07
power_avg_uw        =  3.94208e+00


Total analysis time (seconds) = 0.467442

Total elapsed time (seconds) = 0.536 

Total DRAM available = 16384.000 MB.
DRAM currently available =  227.438 MB.
Maximum ngspice program size =   12.562 MB.
Current ngspice program size =   11.750 MB.

