
Note: No compatibility mode selected!


Circuit: XOR2 seed characterization sample 4412036

Doing analysis at TEMP = -15.012900 and TNOM = 27.000000

Using SPARSE 1.3 as Direct Linear Solver

Initial Transient Solution
--------------------------

Node                                   Voltage
----                                   -------
vdd                                    1.66904
in                                           0
b                                      1.66904
abar                                   1.66904
bbar                               2.24639e-09
out                                    1.66904
vb#branch                                    0
vin#branch                         1.67945e-12
vdd#branch                         -1.0075e-11

 Reference value :  2.19650e-08
 Reference value :  5.24930e-08
 Reference value :  8.43770e-08
No. of Data Rows : 60044

  Measurements for Transient Analysis

tphl                =  4.83100e-10 targ=  2.62408e-09 trig=  2.14098e-09
tplh                =  7.15027e-10 targ=  2.31380e-08 trig=  2.24229e-08
i_vdd_avg           =  -3.71898e-06 from=  5.00000e-09 to=  1.10001e-07
power_avg_uw        =  6.20713e+00


Total analysis time (seconds) = 0.885711

Total elapsed time (seconds) = 0.969 

Total DRAM available = 16384.000 MB.
DRAM currently available =  222.375 MB.
Maximum ngspice program size =   12.641 MB.
Current ngspice program size =   12.641 MB.

