
Note: No compatibility mode selected!


Circuit: NAND2 seed characterization sample 4412046

Doing analysis at TEMP = 90.788300 and TNOM = 27.000000

Using SPARSE 1.3 as Direct Linear Solver

Initial Transient Solution
--------------------------

Node                                   Voltage
----                                   -------
vdd                                    1.68828
in                                           0
out                                    1.68828
nmid                                 0.0458685
vin#branch                                   0
vdd#branch                         -2.9717e-12

 Reference value :  4.18605e-08
 Reference value :  1.00437e-07
No. of Data Rows : 60044

  Measurements for Transient Analysis

tphl                =  3.53576e-10 targ=  2.48844e-09 trig=  2.13486e-09
tplh                =  1.59004e-10 targ=  2.25636e-08 trig=  2.24046e-08
i_vdd_avg           =  -3.25571e-06 from=  5.00000e-09 to=  1.10000e-07
power_avg_uw        =  5.49656e+00


Total analysis time (seconds) = 0.495408

Total elapsed time (seconds) = 0.573 

Total DRAM available = 16384.000 MB.
DRAM currently available =  228.906 MB.
Maximum ngspice program size =   12.562 MB.
Current ngspice program size =   12.109 MB.

