
Note: No compatibility mode selected!


Circuit: XOR2 seed characterization sample 4412027

Doing analysis at TEMP = 57.659600 and TNOM = 27.000000

Using SPARSE 1.3 as Direct Linear Solver

Initial Transient Solution
--------------------------

Node                                   Voltage
----                                   -------
vdd                                     1.7678
in                                           0
b                                       1.7678
abar                                    1.7678
bbar                               3.64212e-09
out                                     1.7678
vb#branch                                    0
vin#branch                         2.08113e-12
vdd#branch                        -1.11983e-11

 Reference value :  2.27069e-08
 Reference value :  5.33905e-08
 Reference value :  8.45385e-08
 Reference value :  1.18645e-07
No. of Data Rows : 60049

  Measurements for Transient Analysis

tphl                =  2.17887e-10 targ=  2.22310e-09 trig=  2.00522e-09
tplh                =  2.33390e-10 targ=  2.22490e-08 trig=  2.20156e-08
i_vdd_avg           =  -1.53754e-06 from=  5.00000e-09 to=  1.10001e-07
power_avg_uw        =  2.71807e+00


Total analysis time (seconds) = 0.923318

Total elapsed time (seconds) = 1.002 

Total DRAM available = 16384.000 MB.
DRAM currently available =  223.266 MB.
Maximum ngspice program size =   12.734 MB.
Current ngspice program size =   12.734 MB.

