
Note: No compatibility mode selected!


Circuit: XOR2 seed characterization sample 4412026

Doing analysis at TEMP = 14.131300 and TNOM = 27.000000

Using SPARSE 1.3 as Direct Linear Solver

Initial Transient Solution
--------------------------

Node                                   Voltage
----                                   -------
vdd                                    1.70657
in                                           0
b                                      1.70657
abar                                   1.70657
bbar                               1.22766e-09
out                                    1.70657
vb#branch                                    0
vin#branch                         1.73829e-12
vdd#branch                         -1.0338e-11

 Reference value :  2.26766e-08
 Reference value :  5.32908e-08
 Reference value :  8.45408e-08
 Reference value :  1.18927e-07
No. of Data Rows : 60044

  Measurements for Transient Analysis

tphl                =  3.87147e-10 targ=  2.49006e-09 trig=  2.10291e-09
tplh                =  4.25764e-10 targ=  2.27345e-08 trig=  2.23087e-08
i_vdd_avg           =  -6.10845e-06 from=  5.00000e-09 to=  1.10001e-07
power_avg_uw        =  1.04245e+01


Total analysis time (seconds) = 0.922804

Total elapsed time (seconds) = 1.000 

Total DRAM available = 16384.000 MB.
DRAM currently available =  215.953 MB.
Maximum ngspice program size =   12.578 MB.
Current ngspice program size =   11.719 MB.

