
Note: No compatibility mode selected!


Circuit: NOR2 seed characterization sample 4412010

Doing analysis at TEMP = 6.900980 and TNOM = 27.000000

Using SPARSE 1.3 as Direct Linear Solver

Initial Transient Solution
--------------------------

Node                                   Voltage
----                                   -------
vdd                                    1.62021
in                                           0
out                                    1.62021
pmid                                   1.62021
vin#branch                                   0
vdd#branch                        -3.27402e-12

 Reference value :  3.77313e-08
 Reference value :  9.05074e-08
No. of Data Rows : 60065

  Measurements for Transient Analysis

tphl                =  7.54649e-11 targ=  2.08125e-09 trig=  2.00578e-09
tplh                =  4.51648e-10 targ=  2.24690e-08 trig=  2.20173e-08
i_vdd_avg           =  -3.15456e-06 from=  5.00000e-09 to=  1.10001e-07
power_avg_uw        =  5.11104e+00


Total analysis time (seconds) = 0.534022

Total elapsed time (seconds) = 0.615 

Total DRAM available = 16384.000 MB.
DRAM currently available =  213.938 MB.
Maximum ngspice program size =   12.562 MB.
Current ngspice program size =   11.656 MB.

