
Note: No compatibility mode selected!


Circuit: INV seed characterization sample 4412037

Doing analysis at TEMP = 6.902460 and TNOM = 27.000000

Using SPARSE 1.3 as Direct Linear Solver

Initial Transient Solution
--------------------------

Node                                   Voltage
----                                   -------
vdd                                     1.8639
in                                           0
out                                     1.8639
vin#branch                                   0
vdd#branch                        -1.87995e-12

 Reference value :  7.20636e-08
No. of Data Rows : 60047

  Measurements for Transient Analysis

tphl                =  3.09110e-10 targ=  2.52876e-09 trig=  2.21965e-09
tplh                =  3.35782e-10 targ=  2.29947e-08 trig=  2.26589e-08
i_vdd_avg           =  -4.67342e-06 from=  5.00000e-09 to=  1.10002e-07
power_avg_uw        =  8.71079e+00


Total analysis time (seconds) = 0.296895

Total elapsed time (seconds) = 0.370 

Total DRAM available = 16384.000 MB.
DRAM currently available =  225.031 MB.
Maximum ngspice program size =   12.562 MB.
Current ngspice program size =   11.734 MB.

