
Note: No compatibility mode selected!


Circuit: INV seed characterization sample 4412008

Doing analysis at TEMP = -4.341420 and TNOM = 27.000000

Using SPARSE 1.3 as Direct Linear Solver

Initial Transient Solution
--------------------------

Node                                   Voltage
----                                   -------
vdd                                    1.88147
in                                           0
out                                    1.88147
vin#branch                                   0
vdd#branch                        -1.89481e-12

 Reference value :  6.09776e-08
No. of Data Rows : 60041

  Measurements for Transient Analysis

tphl                =  6.11718e-11 targ=  2.09445e-09 trig=  2.03327e-09
tplh                =  6.23428e-11 targ=  2.21622e-08 trig=  2.20998e-08
i_vdd_avg           =  -1.58778e-06 from=  5.00000e-09 to=  1.10000e-07
power_avg_uw        =  2.98736e+00


Total analysis time (seconds) = 0.342469

Total elapsed time (seconds) = 0.422 

Total DRAM available = 16384.000 MB.
DRAM currently available =  199.141 MB.
Maximum ngspice program size =   12.891 MB.
Current ngspice program size =   12.891 MB.

