
Note: No compatibility mode selected!


Circuit: NOR2 seed characterization sample 4412001

Doing analysis at TEMP = -7.061780 and TNOM = 27.000000

Using SPARSE 1.3 as Direct Linear Solver

Initial Transient Solution
--------------------------

Node                                   Voltage
----                                   -------
vdd                                     1.9664
in                                           0
out                                     1.9664
pmid                                    1.9664
vin#branch                                   0
vdd#branch                        -3.95878e-12

 Reference value :  4.78456e-08
 Reference value :  1.09118e-07
No. of Data Rows : 60041

  Measurements for Transient Analysis

tphl                =  1.72664e-10 targ=  2.38197e-09 trig=  2.20931e-09
tplh                =  4.25453e-10 targ=  2.30534e-08 trig=  2.26279e-08
i_vdd_avg           =  -7.34832e-06 from=  5.00000e-09 to=  1.10000e-07
power_avg_uw        =  1.44497e+01


Total analysis time (seconds) = 0.470211

Total elapsed time (seconds) = 0.538 

Total DRAM available = 16384.000 MB.
DRAM currently available =  230.422 MB.
Maximum ngspice program size =   12.562 MB.
Current ngspice program size =   11.969 MB.

