
Note: No compatibility mode selected!


Circuit: NOR2 seed characterization sample 4412029

Doing analysis at TEMP = 93.646900 and TNOM = 27.000000

Using SPARSE 1.3 as Direct Linear Solver

Initial Transient Solution
--------------------------

Node                                   Voltage
----                                   -------
vdd                                    1.72945
in                                           0
out                                    1.72945
pmid                                   1.72945
vin#branch                                   0
vdd#branch                        -8.95835e-12

 Reference value :  3.91608e-08
 Reference value :  9.22799e-08
No. of Data Rows : 60041

  Measurements for Transient Analysis

tphl                =  1.26220e-10 targ=  2.35167e-09 trig=  2.22545e-09
tplh                =  3.98007e-10 targ=  2.30744e-08 trig=  2.26764e-08
i_vdd_avg           =  -8.71412e-07 from=  5.00000e-09 to=  1.10001e-07
power_avg_uw        =  1.50706e+00


Total analysis time (seconds) = 0.548697

Total elapsed time (seconds) = 0.627 

Total DRAM available = 16384.000 MB.
DRAM currently available =  223.266 MB.
Maximum ngspice program size =   12.562 MB.
Current ngspice program size =   12.344 MB.

