
Note: No compatibility mode selected!


Circuit: NOR2 seed characterization sample 4412028

Doing analysis at TEMP = 1.240130 and TNOM = 27.000000

Using SPARSE 1.3 as Direct Linear Solver

Initial Transient Solution
--------------------------

Node                                   Voltage
----                                   -------
vdd                                    1.63919
in                                           0
out                                    1.63919
pmid                                   1.63919
vin#branch                                   0
vdd#branch                        -3.30803e-12

 Reference value :  3.98294e-08
 Reference value :  9.27712e-08
No. of Data Rows : 60044

  Measurements for Transient Analysis

tphl                =  1.90552e-10 targ=  2.42066e-09 trig=  2.23011e-09
tplh                =  4.92597e-10 targ=  2.31829e-08 trig=  2.26903e-08
i_vdd_avg           =  -3.66265e-06 from=  5.00000e-09 to=  1.10001e-07
power_avg_uw        =  6.00377e+00


Total analysis time (seconds) = 0.547381

Total elapsed time (seconds) = 0.623 

Total DRAM available = 16384.000 MB.
DRAM currently available =  243.250 MB.
Maximum ngspice program size =   12.562 MB.
Current ngspice program size =   12.359 MB.

