
Note: No compatibility mode selected!


Circuit: NAND2 seed characterization sample 4412038

Doing analysis at TEMP = -9.398680 and TNOM = 27.000000

Using SPARSE 1.3 as Direct Linear Solver

Initial Transient Solution
--------------------------

Node                                   Voltage
----                                   -------
vdd                                    1.70445
in                                           0
out                                    1.70445
nmid                               9.08785e-05
vin#branch                                   0
vdd#branch                        -1.71471e-12

 Reference value :  4.52074e-08
 Reference value :  1.06010e-07
No. of Data Rows : 60044

  Measurements for Transient Analysis

tphl                =  4.26950e-10 targ=  2.47314e-09 trig=  2.04619e-09
tplh                =  2.20427e-10 targ=  2.23590e-08 trig=  2.21386e-08
i_vdd_avg           =  -1.43019e-06 from=  5.00000e-09 to=  1.10002e-07
power_avg_uw        =  2.43768e+00


Total analysis time (seconds) = 0.469075

Total elapsed time (seconds) = 0.544 

Total DRAM available = 16384.000 MB.
DRAM currently available =  225.031 MB.
Maximum ngspice program size =   12.562 MB.
Current ngspice program size =   11.594 MB.

