
Note: No compatibility mode selected!


Circuit: NAND2 seed characterization sample 4412034

Doing analysis at TEMP = 53.165300 and TNOM = 27.000000

Using SPARSE 1.3 as Direct Linear Solver

Initial Transient Solution
--------------------------

Node                                   Voltage
----                                   -------
vdd                                    1.93373
in                                           0
out                                    1.93373
nmid                                 0.0317564
vin#branch                                   0
vdd#branch                         -2.0752e-12

 Reference value :  3.87343e-08
 Reference value :  9.21237e-08
No. of Data Rows : 60041

  Measurements for Transient Analysis

tphl                =  4.09810e-10 targ=  2.58214e-09 trig=  2.17233e-09
tplh                =  1.96593e-10 targ=  2.27136e-08 trig=  2.25170e-08
i_vdd_avg           =  -4.66900e-06 from=  5.00000e-09 to=  1.10000e-07
power_avg_uw        =  9.02859e+00


Total analysis time (seconds) = 0.543503

Total elapsed time (seconds) = 0.624 

Total DRAM available = 16384.000 MB.
DRAM currently available =  236.875 MB.
Maximum ngspice program size =   12.562 MB.
Current ngspice program size =   11.625 MB.

