
Note: Compatibility modes selected: hs a


Circuit: SKY130 library cell mux2_4 A0_to_X__A1=0,S=0

option SCALE: Scale is set to 1e-06 for instance and model parameters
Doing analysis at TEMP = -35.308673 and TNOM = 27.000000

Using KLU as Direct Linear Solver
 Reference value :  0.00000e+00
 Reference value :  2.14364e-08
 Reference value :  4.26646e-08
 Reference value :  6.33596e-08
 Reference value :  8.37696e-08
 Reference value :  1.04782e-07
 Reference value :  1.25907e-07
 Reference value :  1.46627e-07
 Reference value :  1.67767e-07
 Reference value :  1.89020e-07
 Reference value :  2.10495e-07
 Reference value :  2.32300e-07
 Reference value :  2.53620e-07
 Reference value :  2.74757e-07
 Reference value :  2.96372e-07
 Reference value :  3.18132e-07
 Reference value :  3.39427e-07
No. of Data Rows : 68030

  Measurements for Transient Analysis

tplh                =  6.58604e-10 targ=  2.54122e-08 trig=  2.47536e-08
tphl                =  8.39288e-10 targ=  9.71000e-08 trig=  9.62607e-08
i_vdd_avg           =  -2.01318e-06 from=  1.00000e-08 to=  3.30002e-07
power_avg_uw        =  3.45564e+00


Total analysis time (seconds) = 4.19057

Total elapsed time (seconds) = 4.440 

Total DRAM available = 16384.000 MB.
DRAM currently available =  121.938 MB.
Maximum ngspice program size =   27.594 MB.
Current ngspice program size =   27.594 MB.

