
Note: Compatibility modes selected: hs a


Circuit: SKY130 library cell inv_1 A_to_Y

option SCALE: Scale is set to 1e-06 for instance and model parameters
Doing analysis at TEMP = 75.004732 and TNOM = 27.000000

Using KLU as Direct Linear Solver
 Reference value :  0.00000e+00
 Reference value :  1.32753e-07
 Reference value :  2.65033e-07
No. of Data Rows : 68032

  Measurements for Transient Analysis

tphl                =  1.13974e-09 targ=  2.64848e-08 trig=  2.53451e-08
tplh                =  1.87522e-09 targ=  9.99105e-08 trig=  9.80353e-08
i_vdd_avg           =  -1.58388e-06 from=  1.00000e-08 to=  3.30003e-07
power_avg_uw        =  2.63351e+00


Total analysis time (seconds) = 0.665408

Total elapsed time (seconds) = 0.920 

Total DRAM available = 16384.000 MB.
DRAM currently available =  110.281 MB.
Maximum ngspice program size =   26.188 MB.
Current ngspice program size =   26.188 MB.

