
Note: Compatibility modes selected: hs a


Circuit: SKY130 library cell aoi21_1 A1_to_Y__A2=1,B1=0

option SCALE: Scale is set to 1e-06 for instance and model parameters
Doing analysis at TEMP = 73.037258 and TNOM = 27.000000

Using KLU as Direct Linear Solver
 Reference value :  0.00000e+00
 Reference value :  5.64654e-08
 Reference value :  1.13390e-07
 Reference value :  1.70263e-07
 Reference value :  2.25680e-07
 Reference value :  2.82768e-07
 Reference value :  3.38528e-07
No. of Data Rows : 68034

  Measurements for Transient Analysis

tphl                =  8.80384e-10 targ=  3.01818e-08 trig=  2.93014e-08
tplh                =  2.36051e-09 targ=  1.12265e-07 trig=  1.09904e-07
i_vdd_avg           =  -9.16729e-07 from=  1.00000e-08 to=  3.30003e-07
power_avg_uw        =  1.76669e+00


Total analysis time (seconds) = 1.56617

Total elapsed time (seconds) = 1.822 

Total DRAM available = 16384.000 MB.
DRAM currently available =  111.453 MB.
Maximum ngspice program size =   26.844 MB.
Current ngspice program size =   26.844 MB.

