
Note: Compatibility modes selected: hs a


Circuit: SKY130 library cell xor2_4 A_to_X__B=0

option SCALE: Scale is set to 1e-06 for instance and model parameters
Doing analysis at TEMP = 35.497573 and TNOM = 27.000000

Using KLU as Direct Linear Solver
 Reference value :  0.00000e+00
 Reference value :  9.97140e-09
 Reference value :  1.97414e-08
 Reference value :  2.94725e-08
 Reference value :  3.94475e-08
 Reference value :  4.93875e-08
 Reference value :  5.94575e-08
 Reference value :  6.94125e-08
 Reference value :  7.93775e-08
 Reference value :  8.93425e-08
 Reference value :  9.93525e-08
 Reference value :  1.09188e-07
 Reference value :  1.19183e-07
 Reference value :  1.29118e-07
 Reference value :  1.39063e-07
 Reference value :  1.48898e-07
 Reference value :  1.58738e-07
 Reference value :  1.68893e-07
 Reference value :  1.78928e-07
 Reference value :  1.88958e-07
 Reference value :  1.98713e-07
 Reference value :  2.08723e-07
 Reference value :  2.18628e-07
 Reference value :  2.28683e-07
 Reference value :  2.38503e-07
 Reference value :  2.48478e-07
 Reference value :  2.58498e-07
 Reference value :  2.68388e-07
 Reference value :  2.78458e-07
 Reference value :  2.88668e-07
 Reference value :  2.98698e-07
 Reference value :  3.08783e-07
 Reference value :  3.18868e-07
 Reference value :  3.28908e-07
 Reference value :  3.38948e-07
No. of Data Rows : 68032

  Measurements for Transient Analysis

tplh                =  3.22257e-10 targ=  2.90873e-08 trig=  2.87650e-08
tphl                =  1.20718e-09 targ=  1.09502e-07 trig=  1.08295e-07
i_vdd_avg           =  -2.94550e-06 from=  1.00000e-08 to=  3.30003e-07
power_avg_uw        =  5.51582e+00


Total analysis time (seconds) = 8.80823

Total elapsed time (seconds) = 9.106 

Total DRAM available = 16384.000 MB.
DRAM currently available =  130.250 MB.
Maximum ngspice program size =   30.531 MB.
Current ngspice program size =   30.531 MB.

