
Note: Compatibility modes selected: hs a


Circuit: SKY130 library cell oai21_4 A1_to_Y__A2=0,B1=1

option SCALE: Scale is set to 1e-06 for instance and model parameters
Doing analysis at TEMP = 67.589910 and TNOM = 27.000000

Using KLU as Direct Linear Solver
 Reference value :  0.00000e+00
 Reference value :  1.60814e-08
 Reference value :  3.22411e-08
 Reference value :  4.85261e-08
 Reference value :  6.48211e-08
 Reference value :  8.11161e-08
 Reference value :  9.74461e-08
 Reference value :  1.13880e-07
 Reference value :  1.30340e-07
 Reference value :  1.46590e-07
 Reference value :  1.62820e-07
 Reference value :  1.79430e-07
 Reference value :  1.95871e-07
 Reference value :  2.12311e-07
 Reference value :  2.28731e-07
 Reference value :  2.45031e-07
 Reference value :  2.61556e-07
 Reference value :  2.77895e-07
 Reference value :  2.94310e-07
 Reference value :  3.10690e-07
 Reference value :  3.26990e-07
No. of Data Rows : 68034

  Measurements for Transient Analysis

tphl                =  7.30067e-10 targ=  2.74794e-08 trig=  2.67493e-08
tplh                =  1.67693e-09 targ=  1.03925e-07 trig=  1.02248e-07
i_vdd_avg           =  -2.23123e-06 from=  1.00000e-08 to=  3.30005e-07
power_avg_uw        =  4.01821e+00


Total analysis time (seconds) = 5.44414

Total elapsed time (seconds) = 5.733 

Total DRAM available = 16384.000 MB.
DRAM currently available =   89.953 MB.
Maximum ngspice program size =   27.719 MB.
Current ngspice program size =   27.719 MB.

