
Note: Compatibility modes selected: hs a


Circuit: SKY130 library cell oai21_1 A1_to_Y__A2=0,B1=1

option SCALE: Scale is set to 1e-06 for instance and model parameters
Doing analysis at TEMP = 18.785463 and TNOM = 27.000000

Using KLU as Direct Linear Solver
 Reference value :  0.00000e+00
 Reference value :  5.62438e-08
 Reference value :  1.14070e-07
 Reference value :  1.71235e-07
 Reference value :  2.29434e-07
 Reference value :  2.86530e-07
No. of Data Rows : 68030

  Measurements for Transient Analysis

tphl                =  1.47425e-09 targ=  2.72174e-08 trig=  2.57431e-08
tplh                =  3.49887e-09 targ=  1.02728e-07 trig=  9.92294e-08
i_vdd_avg           =  -1.55987e-06 from=  1.00000e-08 to=  3.30000e-07
power_avg_uw        =  2.58917e+00


Total analysis time (seconds) = 1.53759

Total elapsed time (seconds) = 1.790 

Total DRAM available = 16384.000 MB.
DRAM currently available =  103.547 MB.
Maximum ngspice program size =   26.000 MB.
Current ngspice program size =   26.000 MB.

