
Note: Compatibility modes selected: hs a


Circuit: SKY130 library cell inv_1 A_to_Y

option SCALE: Scale is set to 1e-06 for instance and model parameters
Doing analysis at TEMP = 118.964830 and TNOM = 27.000000

Using KLU as Direct Linear Solver
 Reference value :  1.71164e-08
 Reference value :  1.56089e-07
 Reference value :  2.88894e-07
No. of Data Rows : 68034

  Measurements for Transient Analysis

tphl                =  8.43291e-10 targ=  2.54674e-08 trig=  2.46241e-08
tplh                =  1.35273e-09 targ=  9.72252e-08 trig=  9.58724e-08
i_vdd_avg           =  -2.04786e-06 from=  1.00000e-08 to=  3.30004e-07
power_avg_uw        =  3.73425e+00


Total analysis time (seconds) = 0.64181

Total elapsed time (seconds) = 0.857 

Total DRAM available = 16384.000 MB.
DRAM currently available =  110.906 MB.
Maximum ngspice program size =   26.375 MB.
Current ngspice program size =   26.375 MB.

