
Note: Compatibility modes selected: hs a


Circuit: SKY130 library cell mux2_4 A0_to_X__A1=0,S=0

option SCALE: Scale is set to 1e-06 for instance and model parameters
Doing analysis at TEMP = 110.222890 and TNOM = 27.000000

Using KLU as Direct Linear Solver
 Reference value :  0.00000e+00
 Reference value :  2.10914e-08
 Reference value :  4.22020e-08
 Reference value :  6.34620e-08
 Reference value :  8.46870e-08
 Reference value :  1.06301e-07
 Reference value :  1.27726e-07
 Reference value :  1.48631e-07
 Reference value :  1.70321e-07
 Reference value :  1.91632e-07
 Reference value :  2.13012e-07
 Reference value :  2.34677e-07
 Reference value :  2.55737e-07
 Reference value :  2.76551e-07
 Reference value :  2.97646e-07
 Reference value :  3.18881e-07
No. of Data Rows : 68032

  Measurements for Transient Analysis

tplh                =  4.34506e-10 targ=  2.72442e-08 trig=  2.68097e-08
tphl                =  1.03103e-09 targ=  1.03460e-07 trig=  1.02429e-07
i_vdd_avg           =  -2.08424e-06 from=  1.00000e-08 to=  3.30001e-07
power_avg_uw        =  4.05506e+00


Total analysis time (seconds) = 4.15238

Total elapsed time (seconds) = 4.422 

Total DRAM available = 16384.000 MB.
DRAM currently available =  130.703 MB.
Maximum ngspice program size =   26.953 MB.
Current ngspice program size =   26.953 MB.

