
Note: Compatibility modes selected: hs a


Circuit: SKY130 library cell inv_4 A_to_Y

option SCALE: Scale is set to 1e-06 for instance and model parameters
Doing analysis at TEMP = -15.230633 and TNOM = 27.000000

Using KLU as Direct Linear Solver
 Reference value :  0.00000e+00
 Reference value :  4.66384e-08
 Reference value :  9.39734e-08
 Reference value :  1.40019e-07
 Reference value :  1.87328e-07
 Reference value :  2.34258e-07
 Reference value :  2.81459e-07
 Reference value :  3.27374e-07
No. of Data Rows : 68032

  Measurements for Transient Analysis

tphl                =  -2.68217e-10 targ=  2.77672e-08 trig=  2.80355e-08
tplh                =  9.43484e-10 targ=  1.07050e-07 trig=  1.06106e-07
i_vdd_avg           =  -4.09416e-07 from=  1.00000e-08 to=  3.30004e-07
power_avg_uw        =  7.57528e-01


Total analysis time (seconds) = 1.87446

Total elapsed time (seconds) = 2.134 

Total DRAM available = 16384.000 MB.
DRAM currently available =  136.641 MB.
Maximum ngspice program size =   25.391 MB.
Current ngspice program size =   25.391 MB.

