
Note: Compatibility modes selected: hs a


Circuit: SKY130 library cell xor2_4 A_to_X__B=0

option SCALE: Scale is set to 1e-06 for instance and model parameters
Doing analysis at TEMP = -11.298676 and TNOM = 27.000000

Using KLU as Direct Linear Solver
 Reference value :  0.00000e+00
 Reference value :  9.96640e-09
 Reference value :  1.99664e-08
 Reference value :  2.99989e-08
 Reference value :  4.00039e-08
 Reference value :  4.99689e-08
 Reference value :  5.99189e-08
 Reference value :  6.99639e-08
 Reference value :  8.00839e-08
 Reference value :  9.01139e-08
 Reference value :  1.00079e-07
 Reference value :  1.10120e-07
 Reference value :  1.20190e-07
 Reference value :  1.30055e-07
 Reference value :  1.40085e-07
 Reference value :  1.50145e-07
 Reference value :  1.60205e-07
 Reference value :  1.70160e-07
 Reference value :  1.80070e-07
 Reference value :  1.89874e-07
 Reference value :  1.99769e-07
 Reference value :  2.09859e-07
 Reference value :  2.19794e-07
 Reference value :  2.29809e-07
 Reference value :  2.39759e-07
 Reference value :  2.49569e-07
 Reference value :  2.59524e-07
 Reference value :  2.69325e-07
 Reference value :  2.79385e-07
 Reference value :  2.89505e-07
 Reference value :  2.99545e-07
 Reference value :  3.09710e-07
 Reference value :  3.19745e-07
 Reference value :  3.29895e-07
 Reference value :  3.39890e-07
No. of Data Rows : 68030

  Measurements for Transient Analysis

tplh                =  3.55696e-10 targ=  2.60414e-08 trig=  2.56857e-08
tphl                =  8.61824e-10 targ=  9.99189e-08 trig=  9.90571e-08
i_vdd_avg           =  -4.59539e-07 from=  1.00000e-08 to=  3.30000e-07
power_avg_uw        =  7.45175e-01


Total analysis time (seconds) = 8.72664

Total elapsed time (seconds) = 9.015 

Total DRAM available = 16384.000 MB.
DRAM currently available =  131.125 MB.
Maximum ngspice program size =   27.531 MB.
Current ngspice program size =   27.531 MB.

