
Note: Compatibility modes selected: hs a


Circuit: SKY130 library cell oai21_1 A1_to_Y__A2=0,B1=1

option SCALE: Scale is set to 1e-06 for instance and model parameters
Doing analysis at TEMP = 4.380128 and TNOM = 27.000000

Using KLU as Direct Linear Solver
 Reference value :  0.00000e+00
 Reference value :  5.74929e-08
 Reference value :  1.14813e-07
 Reference value :  1.72078e-07
 Reference value :  2.30273e-07
 Reference value :  2.88218e-07
No. of Data Rows : 68032

  Measurements for Transient Analysis

tphl                =  2.36414e-10 targ=  2.92641e-08 trig=  2.90277e-08
tplh                =  1.81964e-09 targ=  1.10903e-07 trig=  1.09083e-07
i_vdd_avg           =  -1.19905e-07 from=  1.00000e-08 to=  3.30003e-07
power_avg_uw        =  2.03846e-01


Total analysis time (seconds) = 1.5198

Total elapsed time (seconds) = 1.779 

Total DRAM available = 16384.000 MB.
DRAM currently available =  107.797 MB.
Maximum ngspice program size =   24.719 MB.
Current ngspice program size =   24.719 MB.

