
Note: Compatibility modes selected: hs a


Circuit: SKY130 library cell nor2_1 A_to_Y__B=0

option SCALE: Scale is set to 1e-06 for instance and model parameters
Doing analysis at TEMP = -17.786113 and TNOM = 27.000000

Using KLU as Direct Linear Solver
 Reference value :  0.00000e+00
 Reference value :  7.82489e-08
 Reference value :  1.58635e-07
 Reference value :  2.37909e-07
 Reference value :  3.16865e-07
No. of Data Rows : 68030

  Measurements for Transient Analysis

tphl                =  1.67931e-09 targ=  3.16500e-08 trig=  2.99707e-08
tplh                =  5.16414e-09 targ=  1.17076e-07 trig=  1.11912e-07
i_vdd_avg           =  -2.45054e-06 from=  1.00000e-08 to=  3.30000e-07
power_avg_uw        =  4.78843e+00


Total analysis time (seconds) = 1.12022

Total elapsed time (seconds) = 1.418 

Total DRAM available = 16384.000 MB.
DRAM currently available =  150.328 MB.
Maximum ngspice program size =   24.984 MB.
Current ngspice program size =   24.984 MB.

