
Note: Compatibility modes selected: hs a


Circuit: SKY130 library cell oai21_4 A1_to_Y__A2=0,B1=1

option SCALE: Scale is set to 1e-06 for instance and model parameters
Doing analysis at TEMP = -35.984332 and TNOM = 27.000000

Using KLU as Direct Linear Solver
 Reference value :  0.00000e+00
 Reference value :  1.65614e-08
 Reference value :  3.30104e-08
 Reference value :  4.95404e-08
 Reference value :  6.61454e-08
 Reference value :  8.26054e-08
 Reference value :  9.88684e-08
 Reference value :  1.15268e-07
 Reference value :  1.31353e-07
 Reference value :  1.47893e-07
 Reference value :  1.64513e-07
 Reference value :  1.80753e-07
 Reference value :  1.97075e-07
 Reference value :  2.13680e-07
 Reference value :  2.30055e-07
 Reference value :  2.46540e-07
 Reference value :  2.62733e-07
 Reference value :  2.79233e-07
 Reference value :  2.95373e-07
 Reference value :  3.11968e-07
 Reference value :  3.28188e-07
No. of Data Rows : 68034

  Measurements for Transient Analysis

tphl                =  1.82419e-10 targ=  2.44389e-08 trig=  2.42565e-08
tplh                =  4.65369e-10 targ=  9.52348e-08 trig=  9.47694e-08
i_vdd_avg           =  -8.69214e-07 from=  1.00000e-08 to=  3.30003e-07
power_avg_uw        =  1.53810e+00


Total analysis time (seconds) = 5.34481

Total elapsed time (seconds) = 5.618 

Total DRAM available = 16384.000 MB.
DRAM currently available =  135.047 MB.
Maximum ngspice program size =   27.078 MB.
Current ngspice program size =   27.078 MB.

