
Note: Compatibility modes selected: hs a


Circuit: SKY130 library cell aoi21_4 A1_to_Y__A2=1,B1=0

option SCALE: Scale is set to 1e-06 for instance and model parameters
Doing analysis at TEMP = 25.935007 and TNOM = 27.000000

Using KLU as Direct Linear Solver
 Reference value :  0.00000e+00
 Reference value :  1.62464e-08
 Reference value :  3.23225e-08
 Reference value :  4.84075e-08
 Reference value :  6.50975e-08
 Reference value :  8.17175e-08
 Reference value :  9.78374e-08
 Reference value :  1.14062e-07
 Reference value :  1.30502e-07
 Reference value :  1.47077e-07
 Reference value :  1.63702e-07
 Reference value :  1.79997e-07
 Reference value :  1.96417e-07
 Reference value :  2.12882e-07
 Reference value :  2.29502e-07
 Reference value :  2.46147e-07
 Reference value :  2.62477e-07
 Reference value :  2.78882e-07
 Reference value :  2.95242e-07
 Reference value :  3.11622e-07
 Reference value :  3.27992e-07
No. of Data Rows : 68032

  Measurements for Transient Analysis

tphl                =  1.33801e-10 targ=  2.42013e-08 trig=  2.40675e-08
tplh                =  3.48204e-10 targ=  9.45507e-08 trig=  9.42025e-08
i_vdd_avg           =  -1.00677e-06 from=  1.00000e-08 to=  3.30002e-07
power_avg_uw        =  1.80507e+00


Total analysis time (seconds) = 5.36115

Total elapsed time (seconds) = 5.632 

Total DRAM available = 16384.000 MB.
DRAM currently available =  130.703 MB.
Maximum ngspice program size =   27.781 MB.
Current ngspice program size =   27.781 MB.

