
Note: Compatibility modes selected: hs a


Circuit: SKY130 library cell nor2_4 A_to_Y__B=0

option SCALE: Scale is set to 1e-06 for instance and model parameters
Doing analysis at TEMP = -17.518824 and TNOM = 27.000000

Using KLU as Direct Linear Solver
 Reference value :  0.00000e+00
 Reference value :  2.41125e-08
 Reference value :  4.83964e-08
 Reference value :  7.30514e-08
 Reference value :  9.68564e-08
 Reference value :  1.21160e-07
 Reference value :  1.45350e-07
 Reference value :  1.69430e-07
 Reference value :  1.93396e-07
 Reference value :  2.17486e-07
 Reference value :  2.41286e-07
 Reference value :  2.65181e-07
 Reference value :  2.89605e-07
 Reference value :  3.13575e-07
 Reference value :  3.37530e-07
No. of Data Rows : 68032

  Measurements for Transient Analysis

tphl                =  6.10483e-10 targ=  2.87075e-08 trig=  2.80970e-08
tplh                =  2.48283e-09 targ=  1.08774e-07 trig=  1.06291e-07
i_vdd_avg           =  -2.06213e-06 from=  1.00000e-08 to=  3.30000e-07
power_avg_uw        =  3.74820e+00


Total analysis time (seconds) = 3.67134

Total elapsed time (seconds) = 3.949 

Total DRAM available = 16384.000 MB.
DRAM currently available =  118.484 MB.
Maximum ngspice program size =   26.359 MB.
Current ngspice program size =   26.359 MB.

