
Note: Compatibility modes selected: hs a


Circuit: SKY130 library cell xor2_1 A_to_X__B=0

option SCALE: Scale is set to 1e-06 for instance and model parameters
Doing analysis at TEMP = -7.361175 and TNOM = 27.000000

Using KLU as Direct Linear Solver
 Reference value :  0.00000e+00
 Reference value :  3.69957e-08
 Reference value :  7.37157e-08
 Reference value :  1.10244e-07
 Reference value :  1.46154e-07
 Reference value :  1.82529e-07
 Reference value :  2.19056e-07
 Reference value :  2.56241e-07
 Reference value :  2.91994e-07
 Reference value :  3.29084e-07
No. of Data Rows : 68034

  Measurements for Transient Analysis

tplh                =  1.80167e-09 targ=  2.79058e-08 trig=  2.61041e-08
tphl                =  1.18450e-09 targ=  1.01497e-07 trig=  1.00312e-07
i_vdd_avg           =  -1.03321e-06 from=  1.00000e-08 to=  3.30004e-07
power_avg_uw        =  1.73240e+00


Total analysis time (seconds) = 2.41547

Total elapsed time (seconds) = 2.693 

Total DRAM available = 16384.000 MB.
DRAM currently available =  118.484 MB.
Maximum ngspice program size =   27.547 MB.
Current ngspice program size =   27.547 MB.

