
Note: Compatibility modes selected: hs a


Circuit: SKY130 library cell oai21_1 A1_to_Y__A2=0,B1=1

option SCALE: Scale is set to 1e-06 for instance and model parameters
Doing analysis at TEMP = 88.152399 and TNOM = 27.000000

Using KLU as Direct Linear Solver
 Reference value :  0.00000e+00
 Reference value :  5.63119e-08
 Reference value :  1.13526e-07
 Reference value :  1.70306e-07
 Reference value :  2.27487e-07
 Reference value :  2.85596e-07
No. of Data Rows : 68032

  Measurements for Transient Analysis

tphl                =  5.19142e-10 targ=  2.65614e-08 trig=  2.60422e-08
tplh                =  1.17416e-09 targ=  1.01301e-07 trig=  1.00127e-07
i_vdd_avg           =  -5.23544e-07 from=  1.00000e-08 to=  3.30001e-07
power_avg_uw        =  9.91396e-01


Total analysis time (seconds) = 1.52948

Total elapsed time (seconds) = 1.793 

Total DRAM available = 16384.000 MB.
DRAM currently available =  134.078 MB.
Maximum ngspice program size =   27.359 MB.
Current ngspice program size =   27.359 MB.

