
Note: Compatibility modes selected: hs a


Circuit: SKY130 library cell oai21_4 A1_to_Y__A2=0,B1=1

option SCALE: Scale is set to 1e-06 for instance and model parameters
Doing analysis at TEMP = 87.751674 and TNOM = 27.000000

Using KLU as Direct Linear Solver
 Reference value :  0.00000e+00
 Reference value :  1.65514e-08
 Reference value :  3.29840e-08
 Reference value :  4.94540e-08
 Reference value :  6.56440e-08
 Reference value :  8.22140e-08
 Reference value :  9.85805e-08
 Reference value :  1.15031e-07
 Reference value :  1.31231e-07
 Reference value :  1.47866e-07
 Reference value :  1.64396e-07
 Reference value :  1.80996e-07
 Reference value :  1.97259e-07
 Reference value :  2.13814e-07
 Reference value :  2.30144e-07
 Reference value :  2.46644e-07
 Reference value :  2.63141e-07
 Reference value :  2.79321e-07
 Reference value :  2.95776e-07
 Reference value :  3.12071e-07
 Reference value :  3.28346e-07
No. of Data Rows : 68030

  Measurements for Transient Analysis

tphl                =  5.40596e-10 targ=  2.56339e-08 trig=  2.50933e-08
tplh                =  1.02243e-09 targ=  9.83022e-08 trig=  9.72798e-08
i_vdd_avg           =  -1.53095e-06 from=  1.00000e-08 to=  3.30001e-07
power_avg_uw        =  2.56806e+00


Total analysis time (seconds) = 5.3549

Total elapsed time (seconds) = 5.645 

Total DRAM available = 16384.000 MB.
DRAM currently available =   92.453 MB.
Maximum ngspice program size =   29.328 MB.
Current ngspice program size =   29.328 MB.

