
Note: Compatibility modes selected: hs a


Circuit: SKY130 library cell nand3_1 A_to_Y__B=1,C=1

option SCALE: Scale is set to 1e-06 for instance and model parameters
Doing analysis at TEMP = 73.756888 and TNOM = 27.000000

Using KLU as Direct Linear Solver
 Reference value :  0.00000e+00
 Reference value :  5.70714e-08
 Reference value :  1.13721e-07
 Reference value :  1.71770e-07
 Reference value :  2.28676e-07
 Reference value :  2.85880e-07
No. of Data Rows : 68032

  Measurements for Transient Analysis

tphl                =  3.16380e-09 targ=  3.31582e-08 trig=  2.99944e-08
tplh                =  4.20112e-09 targ=  1.16184e-07 trig=  1.11983e-07
i_vdd_avg           =  -1.60187e-06 from=  1.00000e-08 to=  3.30000e-07
power_avg_uw        =  2.66349e+00


Total analysis time (seconds) = 1.58831

Total elapsed time (seconds) = 1.857 

Total DRAM available = 16384.000 MB.
DRAM currently available =  162.156 MB.
Maximum ngspice program size =   26.125 MB.
Current ngspice program size =   26.125 MB.

