
Note: Compatibility modes selected: hs a


Circuit: SKY130 library cell nand2_4 A_to_Y__B=1

option SCALE: Scale is set to 1e-06 for instance and model parameters
Doing analysis at TEMP = 52.531582 and TNOM = 27.000000

Using KLU as Direct Linear Solver
 Reference value :  0.00000e+00
 Reference value :  2.45075e-08
 Reference value :  4.87512e-08
 Reference value :  7.30862e-08
 Reference value :  9.79062e-08
 Reference value :  1.21535e-07
 Reference value :  1.46280e-07
 Reference value :  1.70770e-07
 Reference value :  1.95236e-07
 Reference value :  2.19986e-07
 Reference value :  2.45176e-07
 Reference value :  2.69661e-07
 Reference value :  2.94280e-07
 Reference value :  3.18845e-07
No. of Data Rows : 68034

  Measurements for Transient Analysis

tphl                =  8.67518e-10 targ=  2.98444e-08 trig=  2.89768e-08
tplh                =  2.10711e-09 targ=  1.11038e-07 trig=  1.08931e-07
i_vdd_avg           =  -2.29459e-06 from=  1.00000e-08 to=  3.30005e-07
power_avg_uw        =  4.08076e+00


Total analysis time (seconds) = 3.61526

Total elapsed time (seconds) = 3.877 

Total DRAM available = 16384.000 MB.
DRAM currently available =  130.703 MB.
Maximum ngspice program size =   28.828 MB.
Current ngspice program size =   28.828 MB.

