
Note: Compatibility modes selected: hs a


Circuit: SKY130 library cell nand3_1 A_to_Y__B=1,C=1

option SCALE: Scale is set to 1e-06 for instance and model parameters
Doing analysis at TEMP = 27.909737 and TNOM = 27.000000

Using KLU as Direct Linear Solver
 Reference value :  0.00000e+00
 Reference value :  5.70098e-08
 Reference value :  1.15122e-07
 Reference value :  1.72242e-07
 Reference value :  2.30635e-07
 Reference value :  2.89732e-07
No. of Data Rows : 68030

  Measurements for Transient Analysis

tphl                =  2.90168e-09 targ=  3.05503e-08 trig=  2.76486e-08
tplh                =  3.74478e-09 targ=  1.08691e-07 trig=  1.04946e-07
i_vdd_avg           =  -2.14114e-06 from=  1.00000e-08 to=  3.30002e-07
power_avg_uw        =  3.61366e+00


Total analysis time (seconds) = 1.50026

Total elapsed time (seconds) = 1.756 

Total DRAM available = 16384.000 MB.
DRAM currently available =  112.625 MB.
Maximum ngspice program size =   24.688 MB.
Current ngspice program size =   24.688 MB.

