
Note: Compatibility modes selected: hs a


Circuit: SKY130 library cell nand3_1 A_to_Y__B=1,C=1

option SCALE: Scale is set to 1e-06 for instance and model parameters
Doing analysis at TEMP = 56.773553 and TNOM = 27.000000

Using KLU as Direct Linear Solver
 Reference value :  0.00000e+00
 Reference value :  5.76740e-08
 Reference value :  1.15750e-07
 Reference value :  1.74525e-07
 Reference value :  2.32119e-07
 Reference value :  2.89785e-07
No. of Data Rows : 68030

  Measurements for Transient Analysis

tphl                =  5.64263e-11 targ=  2.41547e-08 trig=  2.40982e-08
tplh                =  7.34926e-11 targ=  9.43682e-08 trig=  9.42947e-08
i_vdd_avg           =  -4.34212e-08 from=  1.00000e-08 to=  3.30000e-07
power_avg_uw        =  8.05953e-02


Total analysis time (seconds) = 1.50422

Total elapsed time (seconds) = 1.766 

Total DRAM available = 16384.000 MB.
DRAM currently available =  137.688 MB.
Maximum ngspice program size =   25.438 MB.
Current ngspice program size =   25.438 MB.

