
Note: Compatibility modes selected: hs a


Circuit: SKY130 library cell mux2_1 A0_to_X__A1=0,S=0

option SCALE: Scale is set to 1e-06 for instance and model parameters
Doing analysis at TEMP = 59.874706 and TNOM = 27.000000

Using KLU as Direct Linear Solver
 Reference value :  0.00000e+00
 Reference value :  3.02025e-08
 Reference value :  6.03589e-08
 Reference value :  9.10139e-08
 Reference value :  1.22190e-07
 Reference value :  1.52805e-07
 Reference value :  1.83720e-07
 Reference value :  2.15314e-07
 Reference value :  2.45864e-07
 Reference value :  2.76615e-07
 Reference value :  3.07265e-07
 Reference value :  3.38700e-07
No. of Data Rows : 68030

  Measurements for Transient Analysis

tplh                =  6.59844e-10 targ=  2.95055e-08 trig=  2.88457e-08
tphl                =  1.76790e-09 targ=  1.10305e-07 trig=  1.08537e-07
i_vdd_avg           =  -1.61570e-06 from=  1.00000e-08 to=  3.30000e-07
power_avg_uw        =  3.03368e+00


Total analysis time (seconds) = 2.86484

Total elapsed time (seconds) = 3.122 

Total DRAM available = 16384.000 MB.
DRAM currently available =  111.859 MB.
Maximum ngspice program size =   26.391 MB.
Current ngspice program size =   26.391 MB.

