
Note: Compatibility modes selected: hs a


Circuit: SKY130 library cell aoi21_4 A1_to_Y__A2=1,B1=0

option SCALE: Scale is set to 1e-06 for instance and model parameters
Doing analysis at TEMP = 3.072981 and TNOM = 27.000000

Using KLU as Direct Linear Solver
 Reference value :  0.00000e+00
 Reference value :  1.65964e-08
 Reference value :  3.28380e-08
 Reference value :  4.95280e-08
 Reference value :  6.60680e-08
 Reference value :  8.27680e-08
 Reference value :  9.95880e-08
 Reference value :  1.15963e-07
 Reference value :  1.32498e-07
 Reference value :  1.48818e-07
 Reference value :  1.65403e-07
 Reference value :  1.82398e-07
 Reference value :  1.98773e-07
 Reference value :  2.15208e-07
 Reference value :  2.31578e-07
 Reference value :  2.48263e-07
 Reference value :  2.64438e-07
 Reference value :  2.80803e-07
 Reference value :  2.97173e-07
 Reference value :  3.13633e-07
 Reference value :  3.30173e-07
No. of Data Rows : 68032

  Measurements for Transient Analysis

tphl                =  7.93355e-10 targ=  2.78261e-08 trig=  2.70327e-08
tplh                =  2.06939e-09 targ=  1.05168e-07 trig=  1.03098e-07
i_vdd_avg           =  -2.27854e-06 from=  1.00000e-08 to=  3.30003e-07
power_avg_uw        =  4.13543e+00


Total analysis time (seconds) = 5.29059

Total elapsed time (seconds) = 5.568 

Total DRAM available = 16384.000 MB.
DRAM currently available =  137.688 MB.
Maximum ngspice program size =   26.031 MB.
Current ngspice program size =   26.031 MB.

