
Note: Compatibility modes selected: hs a


Circuit: SKY130 library cell nand3_4 A_to_Y__B=1,C=1

option SCALE: Scale is set to 1e-06 for instance and model parameters
Doing analysis at TEMP = -0.665766 and TNOM = 27.000000

Using KLU as Direct Linear Solver
 Reference value :  0.00000e+00
 Reference value :  1.67914e-08
 Reference value :  3.34090e-08
 Reference value :  5.04540e-08
 Reference value :  6.69490e-08
 Reference value :  8.37440e-08
 Reference value :  1.00156e-07
 Reference value :  1.16686e-07
 Reference value :  1.33461e-07
 Reference value :  1.50211e-07
 Reference value :  1.66981e-07
 Reference value :  1.83646e-07
 Reference value :  2.00194e-07
 Reference value :  2.16624e-07
 Reference value :  2.32939e-07
 Reference value :  2.49354e-07
 Reference value :  2.65936e-07
 Reference value :  2.82431e-07
 Reference value :  2.99161e-07
 Reference value :  3.15821e-07
 Reference value :  3.32621e-07
No. of Data Rows : 68030

  Measurements for Transient Analysis

tphl                =  4.63214e-10 targ=  2.56165e-08 trig=  2.51533e-08
tplh                =  7.86879e-10 targ=  9.82467e-08 trig=  9.74598e-08
i_vdd_avg           =  -1.79222e-06 from=  1.00000e-08 to=  3.30001e-07
power_avg_uw        =  3.50667e+00


Total analysis time (seconds) = 5.2595

Total elapsed time (seconds) = 5.537 

Total DRAM available = 16384.000 MB.
DRAM currently available =  153.641 MB.
Maximum ngspice program size =   27.688 MB.
Current ngspice program size =   27.688 MB.

