
Note: Compatibility modes selected: hs a


Circuit: SKY130 library cell inv_4 A_to_Y

option SCALE: Scale is set to 1e-06 for instance and model parameters
Doing analysis at TEMP = 10.083888 and TNOM = 27.000000

Using KLU as Direct Linear Solver
 Reference value :  0.00000e+00
 Reference value :  4.61458e-08
 Reference value :  9.26208e-08
 Reference value :  1.38299e-07
 Reference value :  1.84458e-07
 Reference value :  2.31891e-07
 Reference value :  2.78244e-07
 Reference value :  3.24764e-07
No. of Data Rows : 68034

  Measurements for Transient Analysis

tphl                =  3.80341e-10 targ=  2.74545e-08 trig=  2.70742e-08
tplh                =  1.39230e-09 targ=  1.04615e-07 trig=  1.03222e-07
i_vdd_avg           =  -6.90594e-07 from=  1.00000e-08 to=  3.30004e-07
power_avg_uw        =  1.14856e+00


Total analysis time (seconds) = 1.91246

Total elapsed time (seconds) = 2.173 

Total DRAM available = 16384.000 MB.
DRAM currently available =   93.156 MB.
Maximum ngspice program size =   26.438 MB.
Current ngspice program size =   26.438 MB.

