
Note: Compatibility modes selected: hs a


Circuit: SKY130 library cell nor2_4 A_to_Y__B=0

option SCALE: Scale is set to 1e-06 for instance and model parameters
Doing analysis at TEMP = 57.035400 and TNOM = 27.000000

Using KLU as Direct Linear Solver
 Reference value :  0.00000e+00
 Reference value :  2.43275e-08
 Reference value :  4.91153e-08
 Reference value :  7.30903e-08
 Reference value :  9.72753e-08
 Reference value :  1.21748e-07
 Reference value :  1.46813e-07
 Reference value :  1.71458e-07
 Reference value :  1.96690e-07
 Reference value :  2.21700e-07
 Reference value :  2.47600e-07
 Reference value :  2.73143e-07
 Reference value :  2.98843e-07
 Reference value :  3.24868e-07
No. of Data Rows : 68034

  Measurements for Transient Analysis

tphl                =  3.13827e-10 targ=  2.58527e-08 trig=  2.55389e-08
tplh                =  9.25484e-10 targ=  9.95421e-08 trig=  9.86167e-08
i_vdd_avg           =  -1.50187e-06 from=  1.00000e-08 to=  3.30003e-07
power_avg_uw        =  2.84486e+00


Total analysis time (seconds) = 3.43267

Total elapsed time (seconds) = 3.699 

Total DRAM available = 16384.000 MB.
DRAM currently available =  187.484 MB.
Maximum ngspice program size =   25.688 MB.
Current ngspice program size =   25.688 MB.

