
Note: Compatibility modes selected: hs a


Circuit: SKY130 library cell mux2_1 A0_to_X__A1=0,S=0

option SCALE: Scale is set to 1e-06 for instance and model parameters
Doing analysis at TEMP = -34.466826 and TNOM = 27.000000

Using KLU as Direct Linear Solver
 Reference value :  2.00640e-09
 Reference value :  3.44711e-08
 Reference value :  6.50811e-08
 Reference value :  9.57961e-08
 Reference value :  1.26230e-07
 Reference value :  1.56400e-07
 Reference value :  1.87381e-07
 Reference value :  2.17886e-07
 Reference value :  2.48076e-07
 Reference value :  2.79640e-07
 Reference value :  3.10135e-07
No. of Data Rows : 68034

  Measurements for Transient Analysis

tplh                =  5.75174e-10 targ=  2.59894e-08 trig=  2.54143e-08
tphl                =  1.03932e-09 targ=  9.92821e-08 trig=  9.82428e-08
i_vdd_avg           =  -3.03509e-07 from=  1.00000e-08 to=  3.30005e-07
power_avg_uw        =  4.99682e-01


Total analysis time (seconds) = 2.8959

Total elapsed time (seconds) = 3.123 

Total DRAM available = 16384.000 MB.
DRAM currently available =  127.344 MB.
Maximum ngspice program size =   25.828 MB.
Current ngspice program size =   25.828 MB.

