
Note: Compatibility modes selected: hs a


Circuit: SKY130 library cell nand3_1 A_to_Y__B=1,C=1

option SCALE: Scale is set to 1e-06 for instance and model parameters
Doing analysis at TEMP = 105.906650 and TNOM = 27.000000

Using KLU as Direct Linear Solver
 Reference value :  0.00000e+00
 Reference value :  5.84907e-08
 Reference value :  1.16779e-07
 Reference value :  1.75974e-07
 Reference value :  2.34041e-07
 Reference value :  2.93139e-07
No. of Data Rows : 68034

  Measurements for Transient Analysis

tphl                =  1.75205e-09 targ=  3.03237e-08 trig=  2.85716e-08
tplh                =  2.26799e-09 targ=  1.09983e-07 trig=  1.07715e-07
i_vdd_avg           =  -1.61045e-06 from=  1.00000e-08 to=  3.30004e-07
power_avg_uw        =  3.18476e+00


Total analysis time (seconds) = 1.48984

Total elapsed time (seconds) = 1.753 

Total DRAM available = 16384.000 MB.
DRAM currently available =  135.250 MB.
Maximum ngspice program size =   26.703 MB.
Current ngspice program size =   26.703 MB.

