
Note: Compatibility modes selected: hs a


Circuit: SKY130 library cell inv_1 A_to_Y

option SCALE: Scale is set to 1e-06 for instance and model parameters
Doing analysis at TEMP = 33.147354 and TNOM = 27.000000

Using KLU as Direct Linear Solver
 Reference value :  0.00000e+00
 Reference value :  1.35107e-07
 Reference value :  2.69657e-07
No. of Data Rows : 68032

  Measurements for Transient Analysis

tphl                =  5.74008e-10 targ=  2.76063e-08 trig=  2.70323e-08
tplh                =  1.63754e-09 targ=  1.04734e-07 trig=  1.03097e-07
i_vdd_avg           =  -8.76119e-07 from=  1.00000e-08 to=  3.30002e-07
power_avg_uw        =  1.72695e+00


Total analysis time (seconds) = 0.645186

Total elapsed time (seconds) = 0.893 

Total DRAM available = 16384.000 MB.
DRAM currently available =  153.641 MB.
Maximum ngspice program size =   25.984 MB.
Current ngspice program size =   25.984 MB.

