
Note: Compatibility modes selected: hs a


Circuit: SKY130 library cell mux2_4 A0_to_X__A1=0,S=0

option SCALE: Scale is set to 1e-06 for instance and model parameters
Doing analysis at TEMP = -1.367804 and TNOM = 27.000000

Using KLU as Direct Linear Solver
 Reference value :  0.00000e+00
 Reference value :  2.12364e-08
 Reference value :  4.22220e-08
 Reference value :  6.36570e-08
 Reference value :  8.51570e-08
 Reference value :  1.06457e-07
 Reference value :  1.27362e-07
 Reference value :  1.48962e-07
 Reference value :  1.70072e-07
 Reference value :  1.91348e-07
 Reference value :  2.12602e-07
 Reference value :  2.33912e-07
 Reference value :  2.55297e-07
 Reference value :  2.76542e-07
 Reference value :  2.97962e-07
 Reference value :  3.19142e-07
No. of Data Rows : 68032

  Measurements for Transient Analysis

tplh                =  5.41785e-10 targ=  3.02640e-08 trig=  2.97223e-08
tphl                =  2.13858e-09 targ=  1.13305e-07 trig=  1.11167e-07
i_vdd_avg           =  -1.78623e-06 from=  1.00000e-08 to=  3.30002e-07
power_avg_uw        =  3.15914e+00


Total analysis time (seconds) = 4.11345

Total elapsed time (seconds) = 4.378 

Total DRAM available = 16384.000 MB.
DRAM currently available =  155.188 MB.
Maximum ngspice program size =   26.875 MB.
Current ngspice program size =   26.875 MB.

