
Note: Compatibility modes selected: hs a


Circuit: SKY130 library cell aoi21_1 A1_to_Y__A2=1,B1=0

option SCALE: Scale is set to 1e-06 for instance and model parameters
Doing analysis at TEMP = 23.397043 and TNOM = 27.000000

Using KLU as Direct Linear Solver
 Reference value :  0.00000e+00
 Reference value :  5.85896e-08
 Reference value :  1.16552e-07
 Reference value :  1.74082e-07
 Reference value :  2.31820e-07
 Reference value :  2.90122e-07
No. of Data Rows : 68030

  Measurements for Transient Analysis

tphl                =  1.72811e-09 targ=  3.07141e-08 trig=  2.89860e-08
tplh                =  3.88044e-09 targ=  1.12839e-07 trig=  1.08958e-07
i_vdd_avg           =  -1.32145e-06 from=  1.00000e-08 to=  3.30002e-07
power_avg_uw        =  2.37992e+00


Total analysis time (seconds) = 1.50209

Total elapsed time (seconds) = 1.771 

Total DRAM available = 16384.000 MB.
DRAM currently available =  123.406 MB.
Maximum ngspice program size =   25.922 MB.
Current ngspice program size =   25.922 MB.

