
Note: Compatibility modes selected: hs a


Circuit: SKY130 library cell aoi21_4 A1_to_Y__A2=1,B1=0

option SCALE: Scale is set to 1e-06 for instance and model parameters
Doing analysis at TEMP = 88.732053 and TNOM = 27.000000

Using KLU as Direct Linear Solver
 Reference value :  0.00000e+00
 Reference value :  1.60914e-08
 Reference value :  3.21794e-08
 Reference value :  4.85394e-08
 Reference value :  6.52594e-08
 Reference value :  8.16644e-08
 Reference value :  9.81094e-08
 Reference value :  1.14561e-07
 Reference value :  1.31126e-07
 Reference value :  1.47606e-07
 Reference value :  1.63791e-07
 Reference value :  1.79981e-07
 Reference value :  1.96324e-07
 Reference value :  2.12869e-07
 Reference value :  2.29184e-07
 Reference value :  2.45704e-07
 Reference value :  2.61936e-07
 Reference value :  2.78201e-07
 Reference value :  2.94651e-07
 Reference value :  3.11061e-07
 Reference value :  3.27531e-07
No. of Data Rows : 68030

  Measurements for Transient Analysis

tphl                =  6.28259e-10 targ=  2.63242e-08 trig=  2.56959e-08
tplh                =  1.15812e-09 targ=  1.00246e-07 trig=  9.90878e-08
i_vdd_avg           =  -1.58521e-06 from=  1.00000e-08 to=  3.30001e-07
power_avg_uw        =  2.74347e+00


Total analysis time (seconds) = 5.40268

Total elapsed time (seconds) = 5.694 

Total DRAM available = 16384.000 MB.
DRAM currently available =   89.828 MB.
Maximum ngspice program size =   27.422 MB.
Current ngspice program size =   27.422 MB.

