
Note: Compatibility modes selected: hs a


Circuit: SKY130 library cell inv_1 A_to_Y

option SCALE: Scale is set to 1e-06 for instance and model parameters
Doing analysis at TEMP = 51.173847 and TNOM = 27.000000

Using KLU as Direct Linear Solver
 Reference value :  0.00000e+00
 Reference value :  1.34996e-07
 Reference value :  2.69694e-07
No. of Data Rows : 68030

  Measurements for Transient Analysis

tphl                =  2.44160e-10 targ=  2.89675e-08 trig=  2.87234e-08
tplh                =  1.44905e-09 targ=  1.09619e-07 trig=  1.08170e-07
i_vdd_avg           =  -2.05171e-07 from=  1.00000e-08 to=  3.30001e-07
power_avg_uw        =  3.45951e-01


Total analysis time (seconds) = 0.651052

Total elapsed time (seconds) = 0.910 

Total DRAM available = 16384.000 MB.
DRAM currently available =  131.125 MB.
Maximum ngspice program size =   26.281 MB.
Current ngspice program size =   26.281 MB.

