
Note: Compatibility modes selected: hs a


Circuit: SKY130 library cell oai21_1 A1_to_Y__A2=0,B1=1

option SCALE: Scale is set to 1e-06 for instance and model parameters
Doing analysis at TEMP = 56.092929 and TNOM = 27.000000

Using KLU as Direct Linear Solver
 Reference value :  0.00000e+00
 Reference value :  5.60500e-08
 Reference value :  1.14278e-07
 Reference value :  1.71098e-07
 Reference value :  2.27725e-07
 Reference value :  2.83918e-07
No. of Data Rows : 68034

  Measurements for Transient Analysis

tphl                =  7.85471e-10 targ=  2.55067e-08 trig=  2.47213e-08
tplh                =  1.77562e-09 targ=  9.79394e-08 trig=  9.61638e-08
i_vdd_avg           =  -1.19402e-06 from=  1.00000e-08 to=  3.30003e-07
power_avg_uw        =  2.12734e+00


Total analysis time (seconds) = 1.57671

Total elapsed time (seconds) = 1.831 

Total DRAM available = 16384.000 MB.
DRAM currently available =   86.516 MB.
Maximum ngspice program size =   26.812 MB.
Current ngspice program size =   26.812 MB.

