
Note: Compatibility modes selected: hs a


Circuit: SKY130 library cell xor2_4 A_to_X__B=0

option SCALE: Scale is set to 1e-06 for instance and model parameters
Doing analysis at TEMP = -33.356339 and TNOM = 27.000000

Using KLU as Direct Linear Solver
 Reference value :  0.00000e+00
 Reference value :  9.96140e-09
 Reference value :  2.01214e-08
 Reference value :  3.00567e-08
 Reference value :  3.99367e-08
 Reference value :  5.00067e-08
 Reference value :  6.00467e-08
 Reference value :  6.99267e-08
 Reference value :  7.98067e-08
 Reference value :  8.99017e-08
 Reference value :  9.98717e-08
 Reference value :  1.09751e-07
 Reference value :  1.19816e-07
 Reference value :  1.29706e-07
 Reference value :  1.39951e-07
 Reference value :  1.50076e-07
 Reference value :  1.60176e-07
 Reference value :  1.70226e-07
 Reference value :  1.80326e-07
 Reference value :  1.90182e-07
 Reference value :  2.00282e-07
 Reference value :  2.10277e-07
 Reference value :  2.20182e-07
 Reference value :  2.30182e-07
 Reference value :  2.40262e-07
 Reference value :  2.50327e-07
 Reference value :  2.60177e-07
 Reference value :  2.69876e-07
 Reference value :  2.79801e-07
 Reference value :  2.89786e-07
 Reference value :  2.99706e-07
 Reference value :  3.09706e-07
 Reference value :  3.19851e-07
 Reference value :  3.29731e-07
 Reference value :  3.39846e-07
No. of Data Rows : 68032

  Measurements for Transient Analysis

tplh                =  5.58655e-10 targ=  2.68007e-08 trig=  2.62421e-08
tphl                =  9.44109e-10 targ=  1.01670e-07 trig=  1.00726e-07
i_vdd_avg           =  -1.73943e-06 from=  1.00000e-08 to=  3.30001e-07
power_avg_uw        =  3.12860e+00


Total analysis time (seconds) = 8.882

Total elapsed time (seconds) = 9.172 

Total DRAM available = 16384.000 MB.
DRAM currently available =  110.281 MB.
Maximum ngspice program size =   28.031 MB.
Current ngspice program size =   28.031 MB.

