
Note: Compatibility modes selected: hs a


Circuit: SKY130 library cell nand2_4 A_to_Y__B=1

option SCALE: Scale is set to 1e-06 for instance and model parameters
Doing analysis at TEMP = -6.189467 and TNOM = 27.000000

Using KLU as Direct Linear Solver
 Reference value :  0.00000e+00
 Reference value :  2.47125e-08
 Reference value :  4.90673e-08
 Reference value :  7.39123e-08
 Reference value :  9.87070e-08
 Reference value :  1.23812e-07
 Reference value :  1.48587e-07
 Reference value :  1.73687e-07
 Reference value :  1.98302e-07
 Reference value :  2.22642e-07
 Reference value :  2.47152e-07
 Reference value :  2.72092e-07
 Reference value :  2.96702e-07
 Reference value :  3.21502e-07
No. of Data Rows : 68032

  Measurements for Transient Analysis

tphl                =  2.21253e-10 targ=  2.46586e-08 trig=  2.44374e-08
tplh                =  3.83164e-10 targ=  9.56953e-08 trig=  9.53121e-08
i_vdd_avg           =  -1.17980e-06 from=  1.00000e-08 to=  3.30002e-07
power_avg_uw        =  2.31353e+00


Total analysis time (seconds) = 3.52991

Total elapsed time (seconds) = 3.794 

Total DRAM available = 16384.000 MB.
DRAM currently available =  134.078 MB.
Maximum ngspice program size =   26.219 MB.
Current ngspice program size =   26.219 MB.

