
Note: Compatibility modes selected: hs a


Circuit: SKY130 library cell oai21_4 A1_to_Y__A2=0,B1=1

option SCALE: Scale is set to 1e-06 for instance and model parameters
Doing analysis at TEMP = 20.122711 and TNOM = 27.000000

Using KLU as Direct Linear Solver
 Reference value :  0.00000e+00
 Reference value :  1.61464e-08
 Reference value :  3.26019e-08
 Reference value :  4.91169e-08
 Reference value :  6.57369e-08
 Reference value :  8.21669e-08
 Reference value :  9.85969e-08
 Reference value :  1.15006e-07
 Reference value :  1.31636e-07
 Reference value :  1.48061e-07
 Reference value :  1.64476e-07
 Reference value :  1.80836e-07
 Reference value :  1.97292e-07
 Reference value :  2.13922e-07
 Reference value :  2.30397e-07
 Reference value :  2.46832e-07
 Reference value :  2.63412e-07
 Reference value :  2.79626e-07
 Reference value :  2.96061e-07
 Reference value :  3.12691e-07
 Reference value :  3.28811e-07
No. of Data Rows : 68032

  Measurements for Transient Analysis

tphl                =  2.30129e-10 targ=  2.82523e-08 trig=  2.80222e-08
tplh                =  1.54808e-09 targ=  1.07615e-07 trig=  1.06067e-07
i_vdd_avg           =  -1.70484e-06 from=  1.00000e-08 to=  3.30001e-07
power_avg_uw        =  3.36714e+00


Total analysis time (seconds) = 5.3084

Total elapsed time (seconds) = 5.585 

Total DRAM available = 16384.000 MB.
DRAM currently available =   98.547 MB.
Maximum ngspice program size =   29.531 MB.
Current ngspice program size =   29.531 MB.

