
Note: Compatibility modes selected: hs a


Circuit: SKY130 library cell xor2_1 A_to_X__B=0

option SCALE: Scale is set to 1e-06 for instance and model parameters
Doing analysis at TEMP = 35.634879 and TNOM = 27.000000

Using KLU as Direct Linear Solver
 Reference value :  0.00000e+00
 Reference value :  3.67494e-08
 Reference value :  7.39244e-08
 Reference value :  1.10291e-07
 Reference value :  1.47261e-07
 Reference value :  1.84063e-07
 Reference value :  2.20324e-07
 Reference value :  2.58221e-07
 Reference value :  2.95856e-07
 Reference value :  3.31871e-07
No. of Data Rows : 68030

  Measurements for Transient Analysis

tplh                =  2.24017e-09 targ=  2.65861e-08 trig=  2.43460e-08
tphl                =  7.03687e-10 targ=  9.57416e-08 trig=  9.50379e-08
i_vdd_avg           =  -2.19379e-06 from=  1.00000e-08 to=  3.30001e-07
power_avg_uw        =  4.16590e+00


Total analysis time (seconds) = 2.38039

Total elapsed time (seconds) = 2.635 

Total DRAM available = 16384.000 MB.
DRAM currently available =  131.125 MB.
Maximum ngspice program size =   26.094 MB.
Current ngspice program size =   26.094 MB.

