
Note: Compatibility modes selected: hs a


Circuit: SKY130 library cell aoi21_1 A1_to_Y__A2=1,B1=0

option SCALE: Scale is set to 1e-06 for instance and model parameters
Doing analysis at TEMP = -10.589682 and TNOM = 27.000000

Using KLU as Direct Linear Solver
 Reference value :  0.00000e+00
 Reference value :  5.87679e-08
 Reference value :  1.14963e-07
 Reference value :  1.73303e-07
 Reference value :  2.31598e-07
 Reference value :  2.89038e-07
No. of Data Rows : 68032

  Measurements for Transient Analysis

tphl                =  1.15987e-09 targ=  2.72351e-08 trig=  2.60752e-08
tplh                =  2.56936e-09 targ=  1.02795e-07 trig=  1.00226e-07
i_vdd_avg           =  -8.25029e-07 from=  1.00000e-08 to=  3.30003e-07
power_avg_uw        =  1.37781e+00


Total analysis time (seconds) = 1.53937

Total elapsed time (seconds) = 1.811 

Total DRAM available = 16384.000 MB.
DRAM currently available =   85.891 MB.
Maximum ngspice program size =   26.531 MB.
Current ngspice program size =   26.531 MB.

