
Note: Compatibility modes selected: hs a


Circuit: SKY130 library cell inv_4 A_to_Y

option SCALE: Scale is set to 1e-06 for instance and model parameters
Doing analysis at TEMP = 65.642833 and TNOM = 27.000000

Using KLU as Direct Linear Solver
 Reference value :  0.00000e+00
 Reference value :  4.59989e-08
 Reference value :  9.19339e-08
 Reference value :  1.38785e-07
 Reference value :  1.84903e-07
 Reference value :  2.31604e-07
 Reference value :  2.78655e-07
 Reference value :  3.24835e-07
No. of Data Rows : 68030

  Measurements for Transient Analysis

tphl                =  3.48598e-10 targ=  2.55693e-08 trig=  2.52207e-08
tplh                =  7.42935e-10 targ=  9.84050e-08 trig=  9.76620e-08
i_vdd_avg           =  -1.00088e-06 from=  1.00000e-08 to=  3.30000e-07
power_avg_uw        =  1.69885e+00


Total analysis time (seconds) = 1.87825

Total elapsed time (seconds) = 2.136 

Total DRAM available = 16384.000 MB.
DRAM currently available =  138.734 MB.
Maximum ngspice program size =   26.000 MB.
Current ngspice program size =   26.000 MB.

