
Note: Compatibility modes selected: hs a


Circuit: SKY130 library cell oai21_1 A1_to_Y__A2=0,B1=1

option SCALE: Scale is set to 1e-06 for instance and model parameters
Doing analysis at TEMP = 102.767880 and TNOM = 27.000000

Using KLU as Direct Linear Solver
 Reference value :  0.00000e+00
 Reference value :  5.73797e-08
 Reference value :  1.14042e-07
 Reference value :  1.70832e-07
 Reference value :  2.29030e-07
 Reference value :  2.85872e-07
No. of Data Rows : 68030

  Measurements for Transient Analysis

tphl                =  1.09441e-09 targ=  2.82630e-08 trig=  2.71686e-08
tplh                =  2.21521e-09 targ=  1.05721e-07 trig=  1.03506e-07
i_vdd_avg           =  -1.30776e-06 from=  1.00000e-08 to=  3.30002e-07
power_avg_uw        =  2.53435e+00


Total analysis time (seconds) = 1.50852

Total elapsed time (seconds) = 1.769 

Total DRAM available = 16384.000 MB.
DRAM currently available =  112.562 MB.
Maximum ngspice program size =   26.922 MB.
Current ngspice program size =   26.922 MB.

