
Note: Compatibility modes selected: hs a


Circuit: SKY130 library cell xor2_1 A_to_X__B=0

option SCALE: Scale is set to 1e-06 for instance and model parameters
Doing analysis at TEMP = 85.831324 and TNOM = 27.000000

Using KLU as Direct Linear Solver
 Reference value :  0.00000e+00
 Reference value :  3.57850e-08
 Reference value :  7.14900e-08
 Reference value :  1.07955e-07
 Reference value :  1.44443e-07
 Reference value :  1.80848e-07
 Reference value :  2.17655e-07
 Reference value :  2.54630e-07
 Reference value :  2.90858e-07
 Reference value :  3.27938e-07
No. of Data Rows : 68034

  Measurements for Transient Analysis

tplh                =  1.60424e-09 targ=  3.04230e-08 trig=  2.88188e-08
tphl                =  1.44570e-09 targ=  1.09902e-07 trig=  1.08456e-07
i_vdd_avg           =  -1.94319e-06 from=  1.00000e-08 to=  3.30003e-07
power_avg_uw        =  3.56303e+00


Total analysis time (seconds) = 2.48492

Total elapsed time (seconds) = 2.751 

Total DRAM available = 16384.000 MB.
DRAM currently available =  110.281 MB.
Maximum ngspice program size =   26.078 MB.
Current ngspice program size =   26.078 MB.

