
Note: Compatibility modes selected: hs a


Circuit: SKY130 library cell nor2_1 A_to_Y__B=0

option SCALE: Scale is set to 1e-06 for instance and model parameters
Doing analysis at TEMP = 78.530599 and TNOM = 27.000000

Using KLU as Direct Linear Solver
 Reference value :  0.00000e+00
 Reference value :  7.99823e-08
 Reference value :  1.59352e-07
 Reference value :  2.38997e-07
 Reference value :  3.16872e-07
No. of Data Rows : 68032

  Measurements for Transient Analysis

tphl                =  6.36675e-10 targ=  2.49766e-08 trig=  2.43399e-08
tplh                =  2.25696e-09 targ=  9.72767e-08 trig=  9.50197e-08
i_vdd_avg           =  -1.54193e-06 from=  1.00000e-08 to=  3.30002e-07
power_avg_uw        =  2.62059e+00


Total analysis time (seconds) = 1.10185

Total elapsed time (seconds) = 1.359 

Total DRAM available = 16384.000 MB.
DRAM currently available =  111.469 MB.
Maximum ngspice program size =   27.328 MB.
Current ngspice program size =   27.328 MB.

