
Note: Compatibility modes selected: hs a


Circuit: SKY130 library cell nand3_1 A_to_Y__B=1,C=1

option SCALE: Scale is set to 1e-06 for instance and model parameters
Doing analysis at TEMP = -12.691919 and TNOM = 27.000000

Using KLU as Direct Linear Solver
 Reference value :  0.00000e+00
 Reference value :  5.75595e-08
 Reference value :  1.16782e-07
 Reference value :  1.75452e-07
 Reference value :  2.33535e-07
 Reference value :  2.91122e-07
No. of Data Rows : 68030

  Measurements for Transient Analysis

tphl                =  8.57612e-10 targ=  2.69886e-08 trig=  2.61310e-08
tplh                =  1.51074e-09 targ=  1.01904e-07 trig=  1.00393e-07
i_vdd_avg           =  -7.19913e-07 from=  1.00000e-08 to=  3.30002e-07
power_avg_uw        =  1.35970e+00


Total analysis time (seconds) = 1.52076

Total elapsed time (seconds) = 1.778 

Total DRAM available = 16384.000 MB.
DRAM currently available =  122.812 MB.
Maximum ngspice program size =   26.672 MB.
Current ngspice program size =   26.672 MB.

