
Note: Compatibility modes selected: hs a


Circuit: SKY130 library cell nor2_1 A_to_Y__B=0

option SCALE: Scale is set to 1e-06 for instance and model parameters
Doing analysis at TEMP = 15.037377 and TNOM = 27.000000

Using KLU as Direct Linear Solver
 Reference value :  0.00000e+00
 Reference value :  7.89526e-08
 Reference value :  1.59333e-07
 Reference value :  2.39663e-07
 Reference value :  3.19443e-07
No. of Data Rows : 68032

  Measurements for Transient Analysis

tphl                =  7.86169e-10 targ=  2.64762e-08 trig=  2.56900e-08
tplh                =  2.01220e-09 targ=  1.01082e-07 trig=  9.90701e-08
i_vdd_avg           =  -1.12430e-06 from=  1.00000e-08 to=  3.30003e-07
power_avg_uw        =  2.10122e+00


Total analysis time (seconds) = 1.11422

Total elapsed time (seconds) = 1.367 

Total DRAM available = 16384.000 MB.
DRAM currently available =  119.219 MB.
Maximum ngspice program size =   25.922 MB.
Current ngspice program size =   25.922 MB.

