
Note: Compatibility modes selected: hs a


Circuit: SKY130 library cell xor2_1 A_to_X__B=0

option SCALE: Scale is set to 1e-06 for instance and model parameters
Doing analysis at TEMP = 103.749050 and TNOM = 27.000000

Using KLU as Direct Linear Solver
 Reference value :  0.00000e+00
 Reference value :  3.64485e-08
 Reference value :  7.38485e-08
 Reference value :  1.10198e-07
 Reference value :  1.46744e-07
 Reference value :  1.83884e-07
 Reference value :  2.20063e-07
 Reference value :  2.57423e-07
 Reference value :  2.94299e-07
 Reference value :  3.30544e-07
No. of Data Rows : 68032

  Measurements for Transient Analysis

tplh                =  2.61908e-10 targ=  2.98274e-08 trig=  2.95655e-08
tphl                =  1.11678e-09 targ=  1.11813e-07 trig=  1.10696e-07
i_vdd_avg           =  -5.42144e-07 from=  1.00000e-08 to=  3.30004e-07
power_avg_uw        =  9.40997e-01


Total analysis time (seconds) = 2.3915

Total elapsed time (seconds) = 2.650 

Total DRAM available = 16384.000 MB.
DRAM currently available =  150.953 MB.
Maximum ngspice program size =   26.297 MB.
Current ngspice program size =   26.297 MB.

