
Note: Compatibility modes selected: hs a


Circuit: SKY130 library cell inv_4 A_to_Y

option SCALE: Scale is set to 1e-06 for instance and model parameters
Doing analysis at TEMP = 20.718236 and TNOM = 27.000000

Using KLU as Direct Linear Solver
 Reference value :  0.00000e+00
 Reference value :  4.51580e-08
 Reference value :  9.10930e-08
 Reference value :  1.37823e-07
 Reference value :  1.84788e-07
 Reference value :  2.31873e-07
 Reference value :  2.79113e-07
 Reference value :  3.26153e-07
No. of Data Rows : 68032

  Measurements for Transient Analysis

tphl                =  3.50687e-10 targ=  2.53109e-08 trig=  2.49602e-08
tplh                =  7.54335e-10 targ=  9.76350e-08 trig=  9.68807e-08
i_vdd_avg           =  -2.04434e-06 from=  1.00000e-08 to=  3.30003e-07
power_avg_uw        =  3.93024e+00


Total analysis time (seconds) = 1.87879

Total elapsed time (seconds) = 2.142 

Total DRAM available = 16384.000 MB.
DRAM currently available =  135.047 MB.
Maximum ngspice program size =   25.844 MB.
Current ngspice program size =   25.844 MB.

