
Note: Compatibility modes selected: hs a


Circuit: SKY130 library cell nor2_1 A_to_Y__B=0

option SCALE: Scale is set to 1e-06 for instance and model parameters
Doing analysis at TEMP = 66.879088 and TNOM = 27.000000

Using KLU as Direct Linear Solver
 Reference value :  0.00000e+00
 Reference value :  8.04261e-08
 Reference value :  1.61860e-07
 Reference value :  2.42046e-07
 Reference value :  3.23995e-07
No. of Data Rows : 68034

  Measurements for Transient Analysis

tphl                =  3.10361e-10 targ=  2.90347e-08 trig=  2.87243e-08
tplh                =  1.73941e-09 targ=  1.09912e-07 trig=  1.08173e-07
i_vdd_avg           =  -4.36895e-07 from=  1.00000e-08 to=  3.30005e-07
power_avg_uw        =  7.99817e-01


Total analysis time (seconds) = 1.07494

Total elapsed time (seconds) = 1.328 

Total DRAM available = 16384.000 MB.
DRAM currently available =  135.344 MB.
Maximum ngspice program size =   26.328 MB.
Current ngspice program size =   26.328 MB.

