
Note: Compatibility modes selected: hs a


Circuit: SKY130 library cell nand2_1 A_to_Y__B=1

option SCALE: Scale is set to 1e-06 for instance and model parameters
Doing analysis at TEMP = -6.365819 and TNOM = 27.000000

Using KLU as Direct Linear Solver
 Reference value :  0.00000e+00
 Reference value :  8.20713e-08
 Reference value :  1.64260e-07
 Reference value :  2.44621e-07
 Reference value :  3.25860e-07
No. of Data Rows : 68032

  Measurements for Transient Analysis

tphl                =  1.22005e-09 targ=  2.77295e-08 trig=  2.65094e-08
tplh                =  2.14950e-09 targ=  1.03678e-07 trig=  1.01528e-07
i_vdd_avg           =  -1.61944e-06 from=  1.00000e-08 to=  3.30000e-07
power_avg_uw        =  3.17390e+00


Total analysis time (seconds) = 1.07712

Total elapsed time (seconds) = 1.329 

Total DRAM available = 16384.000 MB.
DRAM currently available =  114.766 MB.
Maximum ngspice program size =   26.750 MB.
Current ngspice program size =   26.750 MB.

