
Note: Compatibility modes selected: hs a


Circuit: SKY130 library cell mux2_1 A0_to_X__A1=0,S=0

option SCALE: Scale is set to 1e-06 for instance and model parameters
Doing analysis at TEMP = 35.153316 and TNOM = 27.000000

Using KLU as Direct Linear Solver
 Reference value :  0.00000e+00
 Reference value :  3.10125e-08
 Reference value :  6.18325e-08
 Reference value :  9.34875e-08
 Reference value :  1.24287e-07
 Reference value :  1.54707e-07
 Reference value :  1.85333e-07
 Reference value :  2.15857e-07
 Reference value :  2.47602e-07
 Reference value :  2.77927e-07
 Reference value :  3.08867e-07
 Reference value :  3.39672e-07
No. of Data Rows : 68032

  Measurements for Transient Analysis

tplh                =  8.14496e-10 targ=  3.03320e-08 trig=  2.95175e-08
tphl                =  2.00545e-09 targ=  1.12558e-07 trig=  1.10552e-07
i_vdd_avg           =  -1.69251e-06 from=  1.00000e-08 to=  3.30002e-07
power_avg_uw        =  3.09430e+00


Total analysis time (seconds) = 2.83003

Total elapsed time (seconds) = 3.096 

Total DRAM available = 16384.000 MB.
DRAM currently available =  122.812 MB.
Maximum ngspice program size =   26.594 MB.
Current ngspice program size =   26.594 MB.

