
Note: Compatibility modes selected: hs a


Circuit: SKY130 library cell nor2_4 A_to_Y__B=0

option SCALE: Scale is set to 1e-06 for instance and model parameters
Doing analysis at TEMP = 15.728304 and TNOM = 27.000000

Using KLU as Direct Linear Solver
 Reference value :  0.00000e+00
 Reference value :  2.44375e-08
 Reference value :  4.87723e-08
 Reference value :  7.32823e-08
 Reference value :  9.75273e-08
 Reference value :  1.21962e-07
 Reference value :  1.46502e-07
 Reference value :  1.71217e-07
 Reference value :  1.95672e-07
 Reference value :  2.19717e-07
 Reference value :  2.44342e-07
 Reference value :  2.68182e-07
 Reference value :  2.92082e-07
 Reference value :  3.16022e-07
 Reference value :  3.39907e-07
No. of Data Rows : 68032

  Measurements for Transient Analysis

tphl                =  7.84036e-10 targ=  2.70865e-08 trig=  2.63024e-08
tplh                =  2.04127e-09 targ=  1.02949e-07 trig=  1.00907e-07
i_vdd_avg           =  -2.00644e-06 from=  1.00000e-08 to=  3.30002e-07
power_avg_uw        =  3.32513e+00


Total analysis time (seconds) = 3.59297

Total elapsed time (seconds) = 3.864 

Total DRAM available = 16384.000 MB.
DRAM currently available =  153.641 MB.
Maximum ngspice program size =   26.141 MB.
Current ngspice program size =   26.141 MB.

