
Note: Compatibility modes selected: hs a


Circuit: SKY130 library cell nor2_1 A_to_Y__B=0

option SCALE: Scale is set to 1e-06 for instance and model parameters
Doing analysis at TEMP = 99.652638 and TNOM = 27.000000

Using KLU as Direct Linear Solver
 Reference value :  0.00000e+00
 Reference value :  8.03261e-08
 Reference value :  1.60515e-07
 Reference value :  2.39601e-07
 Reference value :  3.20195e-07
No. of Data Rows : 68034

  Measurements for Transient Analysis

tphl                =  1.29707e-09 targ=  2.73189e-08 trig=  2.60218e-08
tplh                =  2.84229e-09 targ=  1.02908e-07 trig=  1.00065e-07
i_vdd_avg           =  -1.34116e-06 from=  1.00000e-08 to=  3.30005e-07
power_avg_uw        =  2.20608e+00


Total analysis time (seconds) = 1.09377

Total elapsed time (seconds) = 1.339 

Total DRAM available = 16384.000 MB.
DRAM currently available =  137.688 MB.
Maximum ngspice program size =   25.953 MB.
Current ngspice program size =   25.953 MB.

