
Note: Compatibility modes selected: hs a


Circuit: SKY130 library cell oai21_1 A1_to_Y__A2=0,B1=1

option SCALE: Scale is set to 1e-06 for instance and model parameters
Doing analysis at TEMP = -33.436144 and TNOM = 27.000000

Using KLU as Direct Linear Solver
 Reference value :  0.00000e+00
 Reference value :  5.73741e-08
 Reference value :  1.14361e-07
 Reference value :  1.71256e-07
 Reference value :  2.28994e-07
 Reference value :  2.87326e-07
No. of Data Rows : 68030

  Measurements for Transient Analysis

tphl                =  2.06305e-09 targ=  3.02664e-08 trig=  2.82033e-08
tplh                =  5.04135e-09 targ=  1.11651e-07 trig=  1.06610e-07
i_vdd_avg           =  -2.20016e-06 from=  1.00000e-08 to=  3.30001e-07
power_avg_uw        =  4.00883e+00


Total analysis time (seconds) = 1.5172

Total elapsed time (seconds) = 1.782 

Total DRAM available = 16384.000 MB.
DRAM currently available =  147.312 MB.
Maximum ngspice program size =   25.391 MB.
Current ngspice program size =   25.391 MB.

