
Note: Compatibility modes selected: hs a


Circuit: SKY130 library cell mux2_1 A0_to_X__A1=0,S=0

option SCALE: Scale is set to 1e-06 for instance and model parameters
Doing analysis at TEMP = 70.170619 and TNOM = 27.000000

Using KLU as Direct Linear Solver
 Reference value :  0.00000e+00
 Reference value :  3.03425e-08
 Reference value :  6.01661e-08
 Reference value :  9.04361e-08
 Reference value :  1.20945e-07
 Reference value :  1.51705e-07
 Reference value :  1.82235e-07
 Reference value :  2.12326e-07
 Reference value :  2.43471e-07
 Reference value :  2.74365e-07
 Reference value :  3.05900e-07
 Reference value :  3.37135e-07
No. of Data Rows : 68034

  Measurements for Transient Analysis

tplh                =  8.70562e-10 targ=  2.83024e-08 trig=  2.74318e-08
tphl                =  1.55671e-09 targ=  1.05852e-07 trig=  1.04295e-07
i_vdd_avg           =  -2.26809e-06 from=  1.00000e-08 to=  3.30005e-07
power_avg_uw        =  4.47677e+00


Total analysis time (seconds) = 2.85524

Total elapsed time (seconds) = 3.126 

Total DRAM available = 16384.000 MB.
DRAM currently available =  119.984 MB.
Maximum ngspice program size =   24.250 MB.
Current ngspice program size =   24.250 MB.

