
Note: Compatibility modes selected: hs a


Circuit: SKY130 library cell aoi21_1 A1_to_Y__A2=1,B1=0

option SCALE: Scale is set to 1e-06 for instance and model parameters
Doing analysis at TEMP = 57.302994 and TNOM = 27.000000

Using KLU as Direct Linear Solver
 Reference value :  0.00000e+00
 Reference value :  5.53905e-08
 Reference value :  1.11134e-07
 Reference value :  1.67959e-07
 Reference value :  2.25471e-07
 Reference value :  2.83664e-07
No. of Data Rows : 68034

  Measurements for Transient Analysis

tphl                =  1.37202e-09 targ=  2.64360e-08 trig=  2.50640e-08
tplh                =  3.05710e-09 targ=  1.00249e-07 trig=  9.71921e-08
i_vdd_avg           =  -2.07796e-06 from=  1.00000e-08 to=  3.30004e-07
power_avg_uw        =  3.67220e+00


Total analysis time (seconds) = 1.55047

Total elapsed time (seconds) = 1.812 

Total DRAM available = 16384.000 MB.
DRAM currently available =  122.688 MB.
Maximum ngspice program size =   26.031 MB.
Current ngspice program size =   26.031 MB.

