
Note: No compatibility mode selected!


Circuit: INV seed characterization sample 6310005

Doing analysis at TEMP = 76.849400 and TNOM = 27.000000

Using SPARSE 1.3 as Direct Linear Solver

Initial Transient Solution
--------------------------

Node                                   Voltage
----                                   -------
vdd                                    1.85396
in                                           0
out                                    1.85396
vin#branch                                   0
vdd#branch                        -4.11787e-12

 Reference value :  5.53368e-08
No. of Data Rows : 60044

  Measurements for Transient Analysis

tphl                =  1.42290e-10 targ=  2.22117e-09 trig=  2.07888e-09
tplh                =  1.50819e-10 targ=  2.23875e-08 trig=  2.22367e-08
i_vdd_avg           =  -2.65004e-06 from=  5.00000e-09 to=  1.10001e-07
power_avg_uw        =  4.91307e+00


Total analysis time (seconds) = 0.322985

Total elapsed time (seconds) = 0.415 

Total DRAM available = 16384.000 MB.
DRAM currently available =  124.016 MB.
Maximum ngspice program size =   13.156 MB.
Current ngspice program size =   13.031 MB.

