
Note: No compatibility mode selected!


Circuit: GF180MCU library cell nand3_1 A1_to_ZN__A2=1,A3=1

Doing analysis at TEMP = 94.319979 and TNOM = 27.000000

Using SPARSE 1.3 as Direct Linear Solver

Initial Transient Solution
--------------------------

Node                                   Voltage
----                                   -------
vdd                                     1.7616
a1                                           0
a2                                      1.7616
a3                                      1.7616
xu1.net_1                          2.25799e-09
xu1.net_0                          4.51598e-09
zn                                      1.7616
vfix_a3#branch                               0
vfix_a2#branch                               0
vin#branch                                   0
vdd#branch                        -2.00115e-12

 Reference value :  5.91919e-08
 Reference value :  1.53246e-07
 Reference value :  2.45582e-07
 Reference value :  3.37781e-07
No. of Data Rows : 68032

  Measurements for Transient Analysis

tphl                =  1.55617e-08 targ=  4.34764e-08 trig=  2.79147e-08
tplh                =  1.84041e-08 targ=  1.24148e-07 trig=  1.05744e-07
i_vdd_avg           =  -2.27280e-06 from=  1.00000e-08 to=  3.30001e-07
power_avg_uw        =  4.00377e+00


Total analysis time (seconds) = 1.01686

Total elapsed time (seconds) = 1.107 

Total DRAM available = 16384.000 MB.
DRAM currently available =  138.438 MB.
Maximum ngspice program size =   16.844 MB.
Current ngspice program size =   16.844 MB.

