
Note: No compatibility mode selected!


Circuit: GF180MCU library cell nor2_1 A1_to_ZN__A2=0

Doing analysis at TEMP = -34.838470 and TNOM = 27.000000

Using SPARSE 1.3 as Direct Linear Solver

Initial Transient Solution
--------------------------

Node                                   Voltage
----                                   -------
vdd                                    1.86397
a1                                           0
a2                                           0
zn                                     1.86397
xu1.net_0                              1.86397
vfix_a2#branch                               0
vin#branch                                   0
vdd#branch                        -3.74794e-12

 Reference value :  1.13815e-07
 Reference value :  2.48031e-07
No. of Data Rows : 68034

  Measurements for Transient Analysis

tphl                =  4.75694e-09 targ=  2.93562e-08 trig=  2.45993e-08
tplh                =  1.63920e-08 targ=  1.12190e-07 trig=  9.57979e-08
i_vdd_avg           =  -1.92765e-06 from=  1.00000e-08 to=  3.30005e-07
power_avg_uw        =  3.59307e+00


Total analysis time (seconds) = 0.675083

Total elapsed time (seconds) = 0.731 

Total DRAM available = 16384.000 MB.
DRAM currently available =  110.547 MB.
Maximum ngspice program size =   12.594 MB.
Current ngspice program size =   12.453 MB.

