
Note: No compatibility mode selected!


Circuit: GF180MCU library cell nand2_1 A1_to_ZN__A2=1

Doing analysis at TEMP = 35.839418 and TNOM = 27.000000

Using SPARSE 1.3 as Direct Linear Solver

Initial Transient Solution
--------------------------

Node                                   Voltage
----                                   -------
vdd                                    1.87635
a1                                           0
a2                                     1.87635
xu1.net_0                          2.65234e-11
zn                                     1.87635
vfix_a2#branch                               0
vin#branch                                   0
vdd#branch                         -1.8898e-12

 Reference value :  8.67403e-08
 Reference value :  2.28300e-07
No. of Data Rows : 68034

  Measurements for Transient Analysis

tphl                =  7.24086e-09 targ=  3.25423e-08 trig=  2.53014e-08
tplh                =  1.06364e-08 targ=  1.08541e-07 trig=  9.79042e-08
i_vdd_avg           =  -2.09336e-06 from=  1.00000e-08 to=  3.30003e-07
power_avg_uw        =  3.92789e+00


Total analysis time (seconds) = 0.682181

Total elapsed time (seconds) = 0.770 

Total DRAM available = 16384.000 MB.
DRAM currently available =  137.219 MB.
Maximum ngspice program size =   17.484 MB.
Current ngspice program size =   17.484 MB.

