
Note: No compatibility mode selected!


Circuit: GF180MCU library cell aoi21_1 A1_to_ZN__A2=1,B=0

Doing analysis at TEMP = 82.687880 and TNOM = 27.000000

Using SPARSE 1.3 as Direct Linear Solver

Initial Transient Solution
--------------------------

Node                                   Voltage
----                                   -------
vdd                                     1.6515
a1                                           0
a2                                      1.6515
b                                            0
xu1.net_0                          1.11399e-09
zn                                      1.6515
xu1.net_1                               1.6515
vfix_b#branch                                0
vfix_a2#branch                               0
vin#branch                                   0
vdd#branch                         -3.5586e-12

 Reference value :  5.93278e-08
 Reference value :  1.48968e-07
 Reference value :  2.39628e-07
 Reference value :  3.36138e-07
No. of Data Rows : 68032

  Measurements for Transient Analysis

tphl                =  9.16708e-09 targ=  3.85947e-08 trig=  2.94277e-08
tplh                =  2.26542e-08 targ=  1.32937e-07 trig=  1.10283e-07
i_vdd_avg           =  -1.27355e-06 from=  1.00000e-08 to=  3.30003e-07
power_avg_uw        =  2.10328e+00


Total analysis time (seconds) = 1.02353

Total elapsed time (seconds) = 1.124 

Total DRAM available = 16384.000 MB.
DRAM currently available =   81.203 MB.
Maximum ngspice program size =   18.078 MB.
Current ngspice program size =   18.078 MB.

