
Note: No compatibility mode selected!


Circuit: GF180MCU library cell nor2_4 A1_to_ZN__A2=0

Doing analysis at TEMP = 9.259222 and TNOM = 27.000000

Using SPARSE 1.3 as Direct Linear Solver

Initial Transient Solution
--------------------------

Node                                   Voltage
----                                   -------
vdd                                    1.76643
a1                                           0
a2                                           0
zn                                     1.76643
xu1.net_0_0                            1.76643
xu1.net_0_1                            1.76643
xu1.net_0_2                            1.76643
xu1.net_0_3                            1.76643
vfix_a2#branch                               0
vin#branch                                   0
vdd#branch                         -1.4214e-11

 Reference value :  2.73575e-08
 Reference value :  6.67328e-08
 Reference value :  1.05938e-07
 Reference value :  1.47688e-07
 Reference value :  1.91113e-07
 Reference value :  2.36003e-07
 Reference value :  2.88483e-07
No. of Data Rows : 68032

  Measurements for Transient Analysis

tphl                =  3.04831e-09 targ=  3.02835e-08 trig=  2.72352e-08
tplh                =  6.71729e-09 targ=  1.10423e-07 trig=  1.03705e-07
i_vdd_avg           =  -1.70183e-06 from=  1.00000e-08 to=  3.30003e-07
power_avg_uw        =  3.00616e+00


Total analysis time (seconds) = 2.0149

Total elapsed time (seconds) = 2.101 

Total DRAM available = 16384.000 MB.
DRAM currently available =  203.609 MB.
Maximum ngspice program size =   16.375 MB.
Current ngspice program size =   16.375 MB.

