
Note: No compatibility mode selected!


Circuit: GF180MCU library cell inv_4 I_to_ZN

Doing analysis at TEMP = 25.182001 and TNOM = 27.000000

Using SPARSE 1.3 as Direct Linear Solver

Initial Transient Solution
--------------------------

Node                                   Voltage
----                                   -------
vdd                                    1.71818
i                                            0
zn                                     1.71818
vin#branch                                   0
vdd#branch                        -6.91772e-12

 Reference value :  4.98779e-08
 Reference value :  1.28183e-07
 Reference value :  2.04263e-07
 Reference value :  2.82288e-07
No. of Data Rows : 68032

  Measurements for Transient Analysis

tphl                =  3.46597e-09 targ=  3.13662e-08 trig=  2.79002e-08
tplh                =  5.92680e-09 targ=  1.11627e-07 trig=  1.05701e-07
i_vdd_avg           =  -2.22411e-06 from=  1.00000e-08 to=  3.30003e-07
power_avg_uw        =  3.82142e+00


Total analysis time (seconds) = 1.26664

Total elapsed time (seconds) = 1.351 

Total DRAM available = 16384.000 MB.
DRAM currently available =  135.672 MB.
Maximum ngspice program size =   18.500 MB.
Current ngspice program size =   18.500 MB.

