
Note: No compatibility mode selected!


Circuit: GF180MCU library cell aoi21_1 A1_to_ZN__A2=1,B=0

Doing analysis at TEMP = -21.710961 and TNOM = 27.000000

Using SPARSE 1.3 as Direct Linear Solver

Initial Transient Solution
--------------------------

Node                                   Voltage
----                                   -------
vdd                                     1.8078
a1                                           0
a2                                      1.8078
b                                            0
xu1.net_0                          5.10631e-14
zn                                      1.8078
xu1.net_1                               1.8078
vfix_b#branch                                0
vfix_a2#branch                               0
vin#branch                                   0
vdd#branch                        -3.63561e-12

 Reference value :  6.95846e-08
 Reference value :  1.66437e-07
 Reference value :  2.60960e-07
No. of Data Rows : 68030

  Measurements for Transient Analysis

tphl                =  7.54741e-09 targ=  3.56510e-08 trig=  2.81036e-08
tplh                =  1.87921e-08 targ=  1.25103e-07 trig=  1.06311e-07
i_vdd_avg           =  -1.67067e-06 from=  1.00000e-08 to=  3.30002e-07
power_avg_uw        =  3.02024e+00


Total analysis time (seconds) = 1.06573

Total elapsed time (seconds) = 1.147 

Total DRAM available = 16384.000 MB.
DRAM currently available =  139.688 MB.
Maximum ngspice program size =   17.328 MB.
Current ngspice program size =   17.328 MB.

