
Note: No compatibility mode selected!


Circuit: GF180MCU library cell mux2_1 I0_to_Z__I1=0,S=0

Doing analysis at TEMP = -4.086564 and TNOM = 27.000000

Using SPARSE 1.3 as Direct Linear Solver

Initial Transient Solution
--------------------------

Node                                   Voltage
----                                   -------
vdd                                    1.73184
i0                                           0
i1                                           0
s                                            0
xu1.int04                              1.73184
z                                    1.401e-08
xu1.net_1                          0.000297119
xu1.net_3                              1.09317
xu1.sel1_n                             1.73184
xu1.net_0                              1.73184
xu1.net_2                              1.73184
vfix_s#branch                                0
vfix_i1#branch                               0
vin#branch                                   0
vdd#branch                        -9.24578e-12

 Reference value :  3.67067e-08
 Reference value :  8.91667e-08
 Reference value :  1.42601e-07
 Reference value :  1.96697e-07
 Reference value :  2.50822e-07
 Reference value :  3.03186e-07
No. of Data Rows : 68032

  Measurements for Transient Analysis

tplh                =  4.84434e-09 targ=  2.97190e-08 trig=  2.48746e-08
tphl                =  3.85154e-09 targ=  1.00475e-07 trig=  9.66238e-08
i_vdd_avg           =  -7.27827e-07 from=  1.00000e-08 to=  3.30001e-07
power_avg_uw        =  1.26048e+00


Total analysis time (seconds) = 1.7489

Total elapsed time (seconds) = 1.832 

Total DRAM available = 16384.000 MB.
DRAM currently available =  130.906 MB.
Maximum ngspice program size =   17.969 MB.
Current ngspice program size =   17.969 MB.

