
Note: No compatibility mode selected!


Circuit: GF180MCU library cell nand2_1 A1_to_ZN__A2=1

Doing analysis at TEMP = -15.904290 and TNOM = 27.000000

Using SPARSE 1.3 as Direct Linear Solver

Initial Transient Solution
--------------------------

Node                                   Voltage
----                                   -------
vdd                                     1.6776
a1                                           0
a2                                      1.6776
xu1.net_0                          1.16743e-13
zn                                      1.6776
vfix_a2#branch                               0
vin#branch                                   0
vdd#branch                        -1.68762e-12

 Reference value :  9.10976e-08
 Reference value :  2.19843e-07
No. of Data Rows : 68032

  Measurements for Transient Analysis

tphl                =  5.96191e-09 targ=  3.30895e-08 trig=  2.71275e-08
tplh                =  9.18538e-09 targ=  1.12568e-07 trig=  1.03383e-07
i_vdd_avg           =  -1.00865e-06 from=  1.00000e-08 to=  3.30003e-07
power_avg_uw        =  1.69211e+00


Total analysis time (seconds) = 0.726749

Total elapsed time (seconds) = 0.822 

Total DRAM available = 16384.000 MB.
DRAM currently available =  118.297 MB.
Maximum ngspice program size =   18.703 MB.
Current ngspice program size =   18.703 MB.

