
Note: No compatibility mode selected!


Circuit: GF180MCU library cell xor2_1 A1_to_Z__A2=0

Doing analysis at TEMP = 12.285581 and TNOM = 27.000000

Using SPARSE 1.3 as Direct Linear Solver

Initial Transient Solution
--------------------------

Node                                   Voltage
----                                   -------
vdd                                     1.7606
a1                                           0
a2                                           0
xu1.i                                   1.7606
z                                  4.93594e-08
xu1.net_0                          8.12737e-11
xu1.net_2                               1.7606
xu1.net_1                             0.864511
vfix_a2#branch                               0
vin#branch                                   0
vdd#branch                        -9.78531e-12

 Reference value :  3.90531e-08
 Reference value :  9.75881e-08
 Reference value :  1.60144e-07
 Reference value :  2.22013e-07
 Reference value :  2.82499e-07
No. of Data Rows : 68032

  Measurements for Transient Analysis

tplh                =  2.36454e-08 targ=  5.02057e-08 trig=  2.65603e-08
tphl                =  7.12783e-09 targ=  1.08809e-07 trig=  1.01681e-07
i_vdd_avg           =  -2.03911e-06 from=  1.00000e-08 to=  3.30004e-07
power_avg_uw        =  3.59006e+00


Total analysis time (seconds) = 1.61496

Total elapsed time (seconds) = 1.704 

Total DRAM available = 16384.000 MB.
DRAM currently available =  124.234 MB.
Maximum ngspice program size =   17.938 MB.
Current ngspice program size =   17.938 MB.

