
Note: No compatibility mode selected!


Circuit: GF180MCU library cell oai21_4 A1_to_ZN__A2=0,B=1

Doing analysis at TEMP = 10.868389 and TNOM = 27.000000

Using SPARSE 1.3 as Direct Linear Solver

Initial Transient Solution
--------------------------

Node                                   Voltage
----                                   -------
vdd                                    1.62391
a1                                           0
a2                                           0
b                                      1.62391
zn                                     1.62391
xu1.net_0                          5.36828e-12
xu1.net_1_0                            1.62391
xu1.net_1_1                            1.62391
xu1.net_1_2                            1.62391
xu1.net_1_3                            1.62391
vfix_b#branch                                0
vfix_a2#branch                               0
vin#branch                                   0
vdd#branch                        -1.30736e-11

 Reference value :  1.80614e-08
 Reference value :  4.68902e-08
 Reference value :  7.64102e-08
 Reference value :  1.04100e-07
 Reference value :  1.31853e-07
 Reference value :  1.61173e-07
 Reference value :  1.88398e-07
 Reference value :  2.16720e-07
 Reference value :  2.44580e-07
 Reference value :  2.72183e-07
 Reference value :  2.99933e-07
 Reference value :  3.27373e-07
No. of Data Rows : 68034

  Measurements for Transient Analysis

tphl                =  3.39764e-09 targ=  3.12015e-08 trig=  2.78039e-08
tplh                =  7.18343e-09 targ=  1.12595e-07 trig=  1.05412e-07
i_vdd_avg           =  -1.04031e-06 from=  1.00000e-08 to=  3.30003e-07
power_avg_uw        =  1.68936e+00


Total analysis time (seconds) = 3.54811

Total elapsed time (seconds) = 3.635 

Total DRAM available = 16384.000 MB.
DRAM currently available =  128.344 MB.
Maximum ngspice program size =   18.156 MB.
Current ngspice program size =   18.156 MB.

