
Note: No compatibility mode selected!


Circuit: GF180MCU library cell oai21_4 A1_to_ZN__A2=0,B=1

Doing analysis at TEMP = 122.720250 and TNOM = 27.000000

Using SPARSE 1.3 as Direct Linear Solver

Initial Transient Solution
--------------------------

Node                                   Voltage
----                                   -------
vdd                                    1.81562
a1                                           0
a2                                           0
b                                      1.81562
zn                                     1.81562
xu1.net_0                          2.35627e-08
xu1.net_1_0                            1.81562
xu1.net_1_1                            1.81562
xu1.net_1_2                            1.81562
xu1.net_1_3                            1.81562
vfix_b#branch                                0
vfix_a2#branch                               0
vin#branch                                   0
vdd#branch                        -2.39744e-11

 Reference value :  1.84414e-08
 Reference value :  4.50377e-08
 Reference value :  7.42777e-08
 Reference value :  1.03038e-07
 Reference value :  1.30503e-07
 Reference value :  1.58068e-07
 Reference value :  1.84523e-07
 Reference value :  2.10493e-07
 Reference value :  2.37128e-07
 Reference value :  2.63733e-07
 Reference value :  2.91918e-07
 Reference value :  3.20003e-07
No. of Data Rows : 68032

  Measurements for Transient Analysis

tphl                =  3.46933e-09 targ=  3.16144e-08 trig=  2.81451e-08
tplh                =  7.19953e-09 targ=  1.13635e-07 trig=  1.06435e-07
i_vdd_avg           =  -1.63631e-06 from=  1.00000e-08 to=  3.30003e-07
power_avg_uw        =  2.97092e+00


Total analysis time (seconds) = 3.61634

Total elapsed time (seconds) = 3.699 

Total DRAM available = 16384.000 MB.
DRAM currently available =   88.094 MB.
Maximum ngspice program size =   17.641 MB.
Current ngspice program size =   17.641 MB.

