
Note: No compatibility mode selected!


Circuit: GF180MCU library cell oai21_1 A1_to_ZN__A2=0,B=1

Doing analysis at TEMP = -1.695111 and TNOM = 27.000000

Using SPARSE 1.3 as Direct Linear Solver

Initial Transient Solution
--------------------------

Node                                   Voltage
----                                   -------
vdd                                    1.96689
a1                                           0
a2                                           0
b                                      1.96689
zn                                     1.96689
xu1.net_0                          1.14728e-12
xu1.net_1                              1.96689
vfix_b#branch                                0
vfix_a2#branch                               0
vin#branch                                   0
vdd#branch                        -3.95396e-12

 Reference value :  6.53282e-08
 Reference value :  1.70819e-07
 Reference value :  2.71909e-07
No. of Data Rows : 68032

  Measurements for Transient Analysis

tphl                =  7.07478e-09 targ=  3.53676e-08 trig=  2.82928e-08
tplh                =  1.64122e-08 targ=  1.23291e-07 trig=  1.06879e-07
i_vdd_avg           =  -1.93520e-06 from=  1.00000e-08 to=  3.30004e-07
power_avg_uw        =  3.80633e+00


Total analysis time (seconds) = 0.91088

Total elapsed time (seconds) = 1.000 

Total DRAM available = 16384.000 MB.
DRAM currently available =  120.375 MB.
Maximum ngspice program size =   16.969 MB.
Current ngspice program size =   16.969 MB.

