
Note: No compatibility mode selected!


Circuit: GF180MCU library cell aoi21_1 A1_to_ZN__A2=1,B=0

Doing analysis at TEMP = 5.628912 and TNOM = 27.000000

Using SPARSE 1.3 as Direct Linear Solver

Initial Transient Solution
--------------------------

Node                                   Voltage
----                                   -------
vdd                                    1.88939
a1                                           0
a2                                     1.88939
b                                            0
xu1.net_0                          1.34067e-12
zn                                     1.88939
xu1.net_1                              1.88939
vfix_b#branch                                0
vfix_a2#branch                               0
vin#branch                                   0
vdd#branch                        -3.79927e-12

 Reference value :  8.13573e-08
 Reference value :  2.01507e-07
 Reference value :  3.01387e-07
No. of Data Rows : 68032

  Measurements for Transient Analysis

tphl                =  7.19744e-09 targ=  3.19098e-08 trig=  2.47124e-08
tplh                =  2.02155e-08 targ=  1.16353e-07 trig=  9.61372e-08
i_vdd_avg           =  -2.32612e-06 from=  1.00000e-08 to=  3.30002e-07
power_avg_uw        =  4.39496e+00


Total analysis time (seconds) = 0.86948

Total elapsed time (seconds) = 0.933 

Total DRAM available = 16384.000 MB.
DRAM currently available =  137.406 MB.
Maximum ngspice program size =   15.891 MB.
Current ngspice program size =   15.891 MB.

