
Note: No compatibility mode selected!


Circuit: GF180MCU library cell oai21_1 A1_to_ZN__A2=0,B=1

Doing analysis at TEMP = 28.029273 and TNOM = 27.000000

Using SPARSE 1.3 as Direct Linear Solver

Initial Transient Solution
--------------------------

Node                                   Voltage
----                                   -------
vdd                                    1.74854
a1                                           0
a2                                           0
b                                      1.74854
zn                                     1.74854
xu1.net_0                          2.74726e-11
xu1.net_1                              1.74854
vfix_b#branch                                0
vfix_a2#branch                               0
vin#branch                                   0
vdd#branch                        -3.52037e-12

 Reference value :  6.51938e-08
 Reference value :  1.58580e-07
 Reference value :  2.56509e-07
No. of Data Rows : 68030

  Measurements for Transient Analysis

tphl                =  6.02006e-09 targ=  3.17007e-08 trig=  2.56806e-08
tplh                =  1.66295e-08 targ=  1.15671e-07 trig=  9.90419e-08
i_vdd_avg           =  -1.32665e-06 from=  1.00000e-08 to=  3.30000e-07
power_avg_uw        =  2.31971e+00


Total analysis time (seconds) = 0.957463

Total elapsed time (seconds) = 1.038 

Total DRAM available = 16384.000 MB.
DRAM currently available =  113.984 MB.
Maximum ngspice program size =   17.047 MB.
Current ngspice program size =   17.047 MB.

