
Note: No compatibility mode selected!


Circuit: GF180MCU library cell mux2_4 I0_to_Z__I1=0,S=0

Doing analysis at TEMP = 39.866205 and TNOM = 27.000000

Using SPARSE 1.3 as Direct Linear Solver

Initial Transient Solution
--------------------------

Node                                   Voltage
----                                   -------
vdd                                    1.62815
i0                                           0
i1                                           0
s                                            0
xu1.int04                              1.62815
z                                  1.65573e-08
xu1.net_1                           0.00151006
xu1.net_3                             0.989543
xu1.sel1_n                             1.62815
xu1.net_0                              1.62815
xu1.net_2                              1.62815
vfix_s#branch                                0
vfix_i1#branch                               0
vin#branch                                   0
vdd#branch                        -1.37325e-11

 Reference value :  2.32314e-08
 Reference value :  6.03011e-08
 Reference value :  9.75761e-08
 Reference value :  1.33760e-07
 Reference value :  1.71630e-07
 Reference value :  2.08466e-07
 Reference value :  2.46041e-07
 Reference value :  2.83220e-07
 Reference value :  3.19495e-07
No. of Data Rows : 68034

  Measurements for Transient Analysis

tplh                =  6.15123e-09 targ=  3.27630e-08 trig=  2.66118e-08
tphl                =  6.49880e-09 targ=  1.08334e-07 trig=  1.01835e-07
i_vdd_avg           =  -2.05539e-06 from=  1.00000e-08 to=  3.30005e-07
power_avg_uw        =  3.34648e+00


Total analysis time (seconds) = 2.55154

Total elapsed time (seconds) = 2.654 

Total DRAM available = 16384.000 MB.
DRAM currently available =  147.359 MB.
Maximum ngspice program size =   18.391 MB.
Current ngspice program size =   18.391 MB.

