
Note: No compatibility mode selected!


Circuit: GF180MCU library cell inv_1 I_to_ZN

Doing analysis at TEMP = -26.481813 and TNOM = 27.000000

Using SPARSE 1.3 as Direct Linear Solver

Initial Transient Solution
--------------------------

Node                                   Voltage
----                                   -------
vdd                                    1.78426
i                                            0
zn                                     1.78426
vin#branch                                   0
vdd#branch                        -1.79426e-12

 Reference value :  1.36546e-07
No. of Data Rows : 68032

  Measurements for Transient Analysis

tphl                =  2.53562e-09 targ=  2.66076e-08 trig=  2.40720e-08
tplh                =  6.58882e-09 targ=  1.00805e-07 trig=  9.42161e-08
i_vdd_avg           =  -1.34746e-06 from=  1.00000e-08 to=  3.30001e-07
power_avg_uw        =  2.40422e+00


Total analysis time (seconds) = 0.504726

Total elapsed time (seconds) = 0.603 

Total DRAM available = 16384.000 MB.
DRAM currently available =  139.688 MB.
Maximum ngspice program size =   17.203 MB.
Current ngspice program size =   17.203 MB.

