
Note: No compatibility mode selected!


Circuit: GF180MCU library cell mux2_1 I0_to_Z__I1=0,S=0

Doing analysis at TEMP = 26.136526 and TNOM = 27.000000

Using SPARSE 1.3 as Direct Linear Solver

Initial Transient Solution
--------------------------

Node                                   Voltage
----                                   -------
vdd                                    1.87228
i0                                           0
i1                                           0
s                                            0
xu1.int04                              1.87228
z                                   1.4707e-08
xu1.net_1                           0.00423423
xu1.net_3                              1.25431
xu1.sel1_n                             1.87228
xu1.net_0                              1.87228
xu1.net_2                              1.87228
vfix_s#branch                                0
vfix_i1#branch                               0
vin#branch                                   0
vdd#branch                        -1.01724e-11

 Reference value :  3.16283e-08
 Reference value :  8.34633e-08
 Reference value :  1.33764e-07
 Reference value :  1.85228e-07
 Reference value :  2.36428e-07
 Reference value :  2.86299e-07
 Reference value :  3.37384e-07
No. of Data Rows : 68032

  Measurements for Transient Analysis

tplh                =  8.18957e-09 targ=  3.58700e-08 trig=  2.76804e-08
tphl                =  6.15894e-09 targ=  1.11200e-07 trig=  1.05041e-07
i_vdd_avg           =  -1.61702e-06 from=  1.00000e-08 to=  3.30004e-07
power_avg_uw        =  3.02752e+00


Total analysis time (seconds) = 2.01443

Total elapsed time (seconds) = 2.092 

Total DRAM available = 16384.000 MB.
DRAM currently available =   88.094 MB.
Maximum ngspice program size =   17.016 MB.
Current ngspice program size =   17.016 MB.

