
Note: No compatibility mode selected!


Circuit: GF180MCU library cell mux2_1 I0_to_Z__I1=0,S=0

Doing analysis at TEMP = 124.084680 and TNOM = 27.000000

Using SPARSE 1.3 as Direct Linear Solver

Initial Transient Solution
--------------------------

Node                                   Voltage
----                                   -------
vdd                                    1.64889
i0                                           0
i1                                           0
s                                            0
xu1.int04                              1.64889
z                                   2.0372e-08
xu1.net_1                            0.0407961
xu1.net_3                               1.2011
xu1.sel1_n                             1.64889
xu1.net_0                              1.64889
xu1.net_2                              1.64889
vfix_s#branch                                0
vfix_i1#branch                               0
vin#branch                                   0
vdd#branch                         -2.0723e-11

 Reference value :  3.19125e-08
 Reference value :  8.09231e-08
 Reference value :  1.32794e-07
 Reference value :  1.86213e-07
 Reference value :  2.36618e-07
 Reference value :  2.87444e-07
No. of Data Rows : 68032

  Measurements for Transient Analysis

tplh                =  8.93392e-09 targ=  3.77867e-08 trig=  2.88528e-08
tphl                =  7.54978e-09 targ=  1.16108e-07 trig=  1.08558e-07
i_vdd_avg           =  -1.03988e-06 from=  1.00000e-08 to=  3.30004e-07
power_avg_uw        =  1.71466e+00


Total analysis time (seconds) = 1.84146

Total elapsed time (seconds) = 1.933 

Total DRAM available = 16384.000 MB.
DRAM currently available =  150.938 MB.
Maximum ngspice program size =   18.672 MB.
Current ngspice program size =   18.672 MB.

