
Note: No compatibility mode selected!


Circuit: GF180MCU library cell inv_4 I_to_ZN

Doing analysis at TEMP = 79.510373 and TNOM = 27.000000

Using SPARSE 1.3 as Direct Linear Solver

Initial Transient Solution
--------------------------

Node                                   Voltage
----                                   -------
vdd                                    1.90855
i                                            0
zn                                     1.90855
vin#branch                                   0
vdd#branch                        -8.05294e-12

 Reference value :  4.95104e-08
 Reference value :  1.24908e-07
 Reference value :  2.01375e-07
 Reference value :  2.79993e-07
No. of Data Rows : 68034

  Measurements for Transient Analysis

tphl                =  1.33680e-09 targ=  2.69607e-08 trig=  2.56239e-08
tplh                =  2.22688e-09 targ=  1.01099e-07 trig=  9.88718e-08
i_vdd_avg           =  -1.17103e-06 from=  1.00000e-08 to=  3.30003e-07
power_avg_uw        =  2.23496e+00


Total analysis time (seconds) = 1.23456

Total elapsed time (seconds) = 1.333 

Total DRAM available = 16384.000 MB.
DRAM currently available =  127.453 MB.
Maximum ngspice program size =   18.125 MB.
Current ngspice program size =   18.125 MB.

