
Note: No compatibility mode selected!


Circuit: GF180MCU library cell nand3_4 A1_to_ZN__A2=1,A3=1

Doing analysis at TEMP = 97.981490 and TNOM = 27.000000

Using SPARSE 1.3 as Direct Linear Solver

Initial Transient Solution
--------------------------

Node                                   Voltage
----                                   -------
vdd                                    1.89174
a1                                           0
a2                                     1.89174
a3                                     1.89174
xu1.net_1_3                         2.6992e-09
xu1.net_0                           5.3984e-09
xu1.net_1_2                         2.6992e-09
xu1.net_1_1                         2.6992e-09
xu1.net_1_0                         2.6992e-09
xu1.net_0_0                         5.3984e-09
zn                                     1.89174
vfix_a3#branch                               0
vfix_a2#branch                               0
vin#branch                                   0
vdd#branch                        -8.81042e-12

 Reference value :  1.88464e-08
 Reference value :  4.65741e-08
 Reference value :  7.48841e-08
 Reference value :  1.03561e-07
 Reference value :  1.31561e-07
 Reference value :  1.60411e-07
 Reference value :  1.89089e-07
 Reference value :  2.15784e-07
 Reference value :  2.44484e-07
 Reference value :  2.73586e-07
 Reference value :  3.02216e-07
 Reference value :  3.30586e-07
No. of Data Rows : 68030

  Measurements for Transient Analysis

tphl                =  1.70820e-09 targ=  2.70940e-08 trig=  2.53858e-08
tplh                =  2.07760e-09 targ=  1.00235e-07 trig=  9.81575e-08
i_vdd_avg           =  -8.91756e-07 from=  1.00000e-08 to=  3.30001e-07
power_avg_uw        =  1.68697e+00


Total analysis time (seconds) = 3.32442

Total elapsed time (seconds) = 3.398 

Total DRAM available = 16384.000 MB.
DRAM currently available =  127.453 MB.
Maximum ngspice program size =   13.438 MB.
Current ngspice program size =   13.219 MB.

