
Note: No compatibility mode selected!


Circuit: GF180MCU library cell nor2_4 A1_to_ZN__A2=0

Doing analysis at TEMP = 84.998633 and TNOM = 27.000000

Using SPARSE 1.3 as Direct Linear Solver

Initial Transient Solution
--------------------------

Node                                   Voltage
----                                   -------
vdd                                     1.9109
a1                                           0
a2                                           0
zn                                      1.9109
xu1.net_0_0                             1.9109
xu1.net_0_1                             1.9109
xu1.net_0_2                             1.9109
xu1.net_0_3                             1.9109
vfix_a2#branch                               0
vin#branch                                   0
vdd#branch                        -1.65121e-11

 Reference value :  2.57925e-08
 Reference value :  6.72380e-08
 Reference value :  1.06323e-07
 Reference value :  1.47173e-07
 Reference value :  1.86643e-07
 Reference value :  2.27043e-07
 Reference value :  2.66193e-07
 Reference value :  3.06858e-07
No. of Data Rows : 68032

  Measurements for Transient Analysis

tphl                =  3.69800e-09 targ=  3.20757e-08 trig=  2.83777e-08
tplh                =  7.77811e-09 targ=  1.14911e-07 trig=  1.07133e-07
i_vdd_avg           =  -2.43651e-06 from=  1.00000e-08 to=  3.30003e-07
power_avg_uw        =  4.65592e+00


Total analysis time (seconds) = 2.37241

Total elapsed time (seconds) = 2.454 

Total DRAM available = 16384.000 MB.
DRAM currently available =  136.875 MB.
Maximum ngspice program size =   17.312 MB.
Current ngspice program size =   17.312 MB.

