
Note: No compatibility mode selected!


Circuit: GF180MCU library cell aoi21_1 A1_to_ZN__A2=1,B=0

Doing analysis at TEMP = 52.587951 and TNOM = 27.000000

Using SPARSE 1.3 as Direct Linear Solver

Initial Transient Solution
--------------------------

Node                                   Voltage
----                                   -------
vdd                                    1.92825
a1                                           0
a2                                     1.92825
b                                            0
xu1.net_0                          1.07431e-10
zn                                     1.92825
xu1.net_1                              1.92825
vfix_b#branch                                0
vfix_a2#branch                               0
vin#branch                                   0
vdd#branch                        -3.90852e-12

 Reference value :  6.62308e-08
 Reference value :  1.59834e-07
 Reference value :  2.52106e-07
No. of Data Rows : 68034

  Measurements for Transient Analysis

tphl                =  1.11741e-09 targ=  2.81216e-08 trig=  2.70042e-08
tplh                =  2.33275e-09 targ=  1.05345e-07 trig=  1.03012e-07
i_vdd_avg           =  -8.86983e-08 from=  1.00000e-08 to=  3.30004e-07
power_avg_uw        =  1.71033e-01


Total analysis time (seconds) = 0.996428

Total elapsed time (seconds) = 1.082 

Total DRAM available = 16384.000 MB.
DRAM currently available =  136.875 MB.
Maximum ngspice program size =   17.547 MB.
Current ngspice program size =   17.547 MB.

