
Note: No compatibility mode selected!


Circuit: GF180MCU library cell nand3_1 A1_to_ZN__A2=1,A3=1

Doing analysis at TEMP = -32.944685 and TNOM = 27.000000

Using SPARSE 1.3 as Direct Linear Solver

Initial Transient Solution
--------------------------

Node                                   Voltage
----                                   -------
vdd                                    1.63673
a1                                           0
a2                                     1.63673
a3                                     1.63673
xu1.net_1                          1.16581e-14
xu1.net_0                          2.33162e-14
zn                                     1.63673
vfix_a3#branch                               0
vfix_a2#branch                               0
vin#branch                                   0
vdd#branch                        -1.64673e-12

 Reference value :  9.20907e-08
 Reference value :  2.08186e-07
 Reference value :  3.14929e-07
No. of Data Rows : 68034

  Measurements for Transient Analysis

tphl                =  4.97973e-09 targ=  3.10063e-08 trig=  2.60266e-08
tplh                =  6.72695e-09 targ=  1.06807e-07 trig=  1.00080e-07
i_vdd_avg           =  -5.93020e-07 from=  1.00000e-08 to=  3.30004e-07
power_avg_uw        =  9.70614e-01


Total analysis time (seconds) = 0.807177

Total elapsed time (seconds) = 0.871 

Total DRAM available = 16384.000 MB.
DRAM currently available =  137.406 MB.
Maximum ngspice program size =   16.797 MB.
Current ngspice program size =   16.797 MB.

