
Note: No compatibility mode selected!


Circuit: GF180MCU library cell aoi21_1 A1_to_ZN__A2=1,B=0

Doing analysis at TEMP = 31.119796 and TNOM = 27.000000

Using SPARSE 1.3 as Direct Linear Solver

Initial Transient Solution
--------------------------

Node                                   Voltage
----                                   -------
vdd                                    1.70139
a1                                           0
a2                                     1.70139
b                                            0
xu1.net_0                          1.87433e-11
zn                                     1.70139
xu1.net_1                              1.70139
vfix_b#branch                                0
vfix_a2#branch                               0
vin#branch                                   0
vdd#branch                        -3.42784e-12

 Reference value :  6.71359e-08
 Reference value :  1.68654e-07
 Reference value :  2.61291e-07
No. of Data Rows : 68034

  Measurements for Transient Analysis

tphl                =  4.04813e-09 targ=  3.17373e-08 trig=  2.76892e-08
tplh                =  8.72422e-09 targ=  1.13792e-07 trig=  1.05068e-07
i_vdd_avg           =  -4.86214e-07 from=  1.00000e-08 to=  3.30004e-07
power_avg_uw        =  8.27240e-01


Total analysis time (seconds) = 0.966078

Total elapsed time (seconds) = 1.047 

Total DRAM available = 16384.000 MB.
DRAM currently available =  133.266 MB.
Maximum ngspice program size =   16.953 MB.
Current ngspice program size =   16.953 MB.

