
Note: No compatibility mode selected!


Circuit: GF180MCU library cell aoi21_4 A1_to_ZN__A2=1,B=0

Doing analysis at TEMP = 116.369820 and TNOM = 27.000000

Using SPARSE 1.3 as Direct Linear Solver

Initial Transient Solution
--------------------------

Node                                   Voltage
----                                   -------
vdd                                     1.8608
a1                                           0
a2                                      1.8608
b                                            0
xu1.net_0_0                        8.13096e-09
zn                                      1.8608
xu1.net_0_1                        8.13096e-09
xu1.net_0_2                        8.13096e-09
xu1.net_0_3                        8.13096e-09
xu1.net_1                               1.8608
vfix_b#branch                                0
vfix_a2#branch                               0
vin#branch                                   0
vdd#branch                         -2.2308e-11

 Reference value :  1.87514e-08
 Reference value :  4.76328e-08
 Reference value :  7.60778e-08
 Reference value :  1.03848e-07
 Reference value :  1.32703e-07
 Reference value :  1.61128e-07
 Reference value :  1.88898e-07
 Reference value :  2.16638e-07
 Reference value :  2.45183e-07
 Reference value :  2.74138e-07
 Reference value :  3.00198e-07
 Reference value :  3.28903e-07
No. of Data Rows : 68032

  Measurements for Transient Analysis

tphl                =  3.07090e-09 targ=  3.22060e-08 trig=  2.91351e-08
tplh                =  5.83721e-09 targ=  1.15243e-07 trig=  1.09405e-07
i_vdd_avg           =  -1.23056e-06 from=  1.00000e-08 to=  3.30003e-07
power_avg_uw        =  2.28983e+00


Total analysis time (seconds) = 3.30594

Total elapsed time (seconds) = 3.400 

Total DRAM available = 16384.000 MB.
DRAM currently available =  147.359 MB.
Maximum ngspice program size =   18.828 MB.
Current ngspice program size =   18.828 MB.

