
Note: No compatibility mode selected!


Circuit: GF180MCU library cell inv_4 I_to_ZN

Doing analysis at TEMP = -15.870083 and TNOM = 27.000000

Using SPARSE 1.3 as Direct Linear Solver

Initial Transient Solution
--------------------------

Node                                   Voltage
----                                   -------
vdd                                    1.62175
i                                            0
zn                                     1.62175
vin#branch                                   0
vdd#branch                        -6.52705e-12

 Reference value :  5.95120e-08
 Reference value :  1.49561e-07
 Reference value :  2.30977e-07
 Reference value :  3.05866e-07
No. of Data Rows : 68032

  Measurements for Transient Analysis

tphl                =  1.09473e-09 targ=  2.53170e-08 trig=  2.42222e-08
tplh                =  2.95821e-09 targ=  9.76250e-08 trig=  9.46667e-08
i_vdd_avg           =  -1.49570e-06 from=  1.00000e-08 to=  3.30001e-07
power_avg_uw        =  2.42565e+00


Total analysis time (seconds) = 1.14891

Total elapsed time (seconds) = 1.221 

Total DRAM available = 16384.000 MB.
DRAM currently available =  123.250 MB.
Maximum ngspice program size =   19.453 MB.
Current ngspice program size =   19.453 MB.

