
Note: No compatibility mode selected!


Circuit: GF180MCU library cell nor2_4 A1_to_ZN__A2=0

Doing analysis at TEMP = 118.198350 and TNOM = 27.000000

Using SPARSE 1.3 as Direct Linear Solver

Initial Transient Solution
--------------------------

Node                                   Voltage
----                                   -------
vdd                                    1.73004
a1                                           0
a2                                           0
zn                                     1.73004
xu1.net_0_0                            1.73004
xu1.net_0_1                            1.73004
xu1.net_0_2                            1.73004
xu1.net_0_3                            1.73004
vfix_a2#branch                               0
vin#branch                                   0
vdd#branch                        -2.11878e-11

 Reference value :  2.62225e-08
 Reference value :  6.64973e-08
 Reference value :  1.07657e-07
 Reference value :  1.46442e-07
 Reference value :  1.87033e-07
 Reference value :  2.29092e-07
 Reference value :  2.69887e-07
 Reference value :  3.12592e-07
No. of Data Rows : 68032

  Measurements for Transient Analysis

tphl                =  2.43964e-09 targ=  2.89446e-08 trig=  2.65049e-08
tplh                =  5.57293e-09 targ=  1.07088e-07 trig=  1.01515e-07
i_vdd_avg           =  -1.31005e-06 from=  1.00000e-08 to=  3.30002e-07
power_avg_uw        =  2.26643e+00


Total analysis time (seconds) = 2.28114

Total elapsed time (seconds) = 2.370 

Total DRAM available = 16384.000 MB.
DRAM currently available =  127.453 MB.
Maximum ngspice program size =   17.891 MB.
Current ngspice program size =   17.891 MB.

