
Note: No compatibility mode selected!


Circuit: GF180MCU library cell inv_4 I_to_ZN

Doing analysis at TEMP = -0.515923 and TNOM = 27.000000

Using SPARSE 1.3 as Direct Linear Solver

Initial Transient Solution
--------------------------

Node                                   Voltage
----                                   -------
vdd                                    1.83016
i                                            0
zn                                     1.83016
vin#branch                                   0
vdd#branch                        -7.36102e-12

 Reference value :  4.83289e-08
 Reference value :  1.19080e-07
 Reference value :  1.94693e-07
 Reference value :  2.72719e-07
No. of Data Rows : 68030

  Measurements for Transient Analysis

tphl                =  1.07796e-09 targ=  3.10362e-08 trig=  2.99582e-08
tplh                =  2.79404e-09 targ=  1.14669e-07 trig=  1.11875e-07
i_vdd_avg           =  -1.67333e-07 from=  1.00000e-08 to=  3.30000e-07
power_avg_uw        =  3.06245e-01


Total analysis time (seconds) = 1.2641

Total elapsed time (seconds) = 1.361 

Total DRAM available = 16384.000 MB.
DRAM currently available =  137.219 MB.
Maximum ngspice program size =   18.719 MB.
Current ngspice program size =   18.719 MB.

