
Note: No compatibility mode selected!


Circuit: GF180MCU library cell inv_1 I_to_ZN

Doing analysis at TEMP = 113.941530 and TNOM = 27.000000

Using SPARSE 1.3 as Direct Linear Solver

Initial Transient Solution
--------------------------

Node                                   Voltage
----                                   -------
vdd                                    1.64468
i                                            0
zn                                     1.64468
vin#branch                                   0
vdd#branch                        -2.33848e-12

 Reference value :  1.82944e-07
No. of Data Rows : 68032

  Measurements for Transient Analysis

tphl                =  3.70520e-09 targ=  2.95231e-08 trig=  2.58179e-08
tplh                =  8.19737e-09 targ=  1.07651e-07 trig=  9.94537e-08
i_vdd_avg           =  -9.90095e-07 from=  1.00000e-08 to=  3.30004e-07
power_avg_uw        =  1.62839e+00


Total analysis time (seconds) = 0.357699

Total elapsed time (seconds) = 0.419 

Total DRAM available = 16384.000 MB.
DRAM currently available =  137.406 MB.
Maximum ngspice program size =   15.438 MB.
Current ngspice program size =   15.438 MB.

