
Note: No compatibility mode selected!


Circuit: GF180MCU library cell aoi21_4 A1_to_ZN__A2=1,B=0

Doing analysis at TEMP = 32.003381 and TNOM = 27.000000

Using SPARSE 1.3 as Direct Linear Solver

Initial Transient Solution
--------------------------

Node                                   Voltage
----                                   -------
vdd                                    1.84788
a1                                           0
a2                                     1.84788
b                                            0
xu1.net_0_0                        1.89759e-11
zn                                     1.84788
xu1.net_0_1                        1.89759e-11
xu1.net_0_2                        1.89759e-11
xu1.net_0_3                        1.89759e-11
xu1.net_1                              1.84788
vfix_b#branch                                0
vfix_a2#branch                               0
vin#branch                                   0
vdd#branch                        -1.48863e-11

 Reference value :  1.88514e-08
 Reference value :  4.66234e-08
 Reference value :  7.38834e-08
 Reference value :  1.03048e-07
 Reference value :  1.29744e-07
 Reference value :  1.57509e-07
 Reference value :  1.86438e-07
 Reference value :  2.13668e-07
 Reference value :  2.41323e-07
 Reference value :  2.70144e-07
 Reference value :  2.99429e-07
 Reference value :  3.28474e-07
No. of Data Rows : 68032

  Measurements for Transient Analysis

tphl                =  3.57460e-09 targ=  3.07701e-08 trig=  2.71955e-08
tplh                =  7.67240e-09 targ=  1.11259e-07 trig=  1.03586e-07
i_vdd_avg           =  -2.39497e-06 from=  1.00000e-08 to=  3.30004e-07
power_avg_uw        =  4.42562e+00


Total analysis time (seconds) = 3.33394

Total elapsed time (seconds) = 3.419 

Total DRAM available = 16384.000 MB.
DRAM currently available =  152.922 MB.
Maximum ngspice program size =   17.109 MB.
Current ngspice program size =   17.109 MB.

