
Note: No compatibility mode selected!


Circuit: GF180MCU library cell inv_1 I_to_ZN

Doing analysis at TEMP = 10.488034 and TNOM = 27.000000

Using SPARSE 1.3 as Direct Linear Solver

Initial Transient Solution
--------------------------

Node                                   Voltage
----                                   -------
vdd                                    1.95477
i                                            0
zn                                     1.95477
vin#branch                                   0
vdd#branch                         -1.9651e-12

 Reference value :  1.36728e-07
No. of Data Rows : 68034

  Measurements for Transient Analysis

tphl                =  3.83784e-09 targ=  3.00216e-08 trig=  2.61838e-08
tplh                =  7.80539e-09 targ=  1.08357e-07 trig=  1.00551e-07
i_vdd_avg           =  -1.77134e-06 from=  1.00000e-08 to=  3.30003e-07
power_avg_uw        =  3.46257e+00


Total analysis time (seconds) = 0.456579

Total elapsed time (seconds) = 0.535 

Total DRAM available = 16384.000 MB.
DRAM currently available =   81.203 MB.
Maximum ngspice program size =   17.281 MB.
Current ngspice program size =   17.281 MB.

