
Note: No compatibility mode selected!


Circuit: GF180MCU library cell aoi21_4 A1_to_ZN__A2=1,B=0

Doing analysis at TEMP = 68.371341 and TNOM = 27.000000

Using SPARSE 1.3 as Direct Linear Solver

Initial Transient Solution
--------------------------

Node                                   Voltage
----                                   -------
vdd                                    1.71852
a1                                           0
a2                                     1.71852
b                                            0
xu1.net_0_0                        3.93436e-10
zn                                     1.71852
xu1.net_0_1                        3.93436e-10
xu1.net_0_2                        3.93436e-10
xu1.net_0_3                        3.93436e-10
xu1.net_1                              1.71852
vfix_b#branch                                0
vfix_a2#branch                               0
vin#branch                                   0
vdd#branch                        -1.42005e-11

 Reference value :  1.84314e-08
 Reference value :  4.62132e-08
 Reference value :  7.20782e-08
 Reference value :  9.88832e-08
 Reference value :  1.26404e-07
 Reference value :  1.51599e-07
 Reference value :  1.80429e-07
 Reference value :  2.07463e-07
 Reference value :  2.35293e-07
 Reference value :  2.63284e-07
 Reference value :  2.90629e-07
 Reference value :  3.20084e-07
No. of Data Rows : 68032

  Measurements for Transient Analysis

tphl                =  2.56083e-09 targ=  2.87962e-08 trig=  2.62354e-08
tplh                =  5.57863e-09 targ=  1.06285e-07 trig=  1.00706e-07
i_vdd_avg           =  -1.29556e-06 from=  1.00000e-08 to=  3.30004e-07
power_avg_uw        =  2.22644e+00


Total analysis time (seconds) = 3.76836

Total elapsed time (seconds) = 3.865 

Total DRAM available = 16384.000 MB.
DRAM currently available =  133.266 MB.
Maximum ngspice program size =   17.891 MB.
Current ngspice program size =   17.891 MB.

