
Note: No compatibility mode selected!


Circuit: GF180MCU library cell inv_1 I_to_ZN

Doing analysis at TEMP = 74.830230 and TNOM = 27.000000

Using SPARSE 1.3 as Direct Linear Solver

Initial Transient Solution
--------------------------

Node                                   Voltage
----                                   -------
vdd                                     1.8986
i                                            0
zn                                      1.8986
vin#branch                                   0
vdd#branch                        -1.97751e-12

 Reference value :  1.44630e-07
No. of Data Rows : 68032

  Measurements for Transient Analysis

tphl                =  2.80599e-09 targ=  3.13529e-08 trig=  2.85469e-08
tplh                =  4.74984e-09 targ=  1.12391e-07 trig=  1.07641e-07
i_vdd_avg           =  -4.62476e-07 from=  1.00000e-08 to=  3.30000e-07
power_avg_uw        =  8.78057e-01


Total analysis time (seconds) = 0.45659

Total elapsed time (seconds) = 0.539 

Total DRAM available = 16384.000 MB.
DRAM currently available =  147.359 MB.
Maximum ngspice program size =   18.188 MB.
Current ngspice program size =   18.188 MB.

