
Note: No compatibility mode selected!


Circuit: GF180MCU library cell xor2_4 A1_to_Z__A2=0

Doing analysis at TEMP = -23.925921 and TNOM = 27.000000

Using SPARSE 1.3 as Direct Linear Solver

Initial Transient Solution
--------------------------

Node                                   Voltage
----                                   -------
vdd                                    1.63866
a1                                           0
a2                                           0
xu1.net_2                          3.22944e-05
xu1.i                                  1.63866
xu1.net_0                          8.30663e-14
xu1.z_neg                              1.63866
z                                  1.36915e-08
xu1.net_1                              1.63866
vfix_a2#branch                               0
vin#branch                                   0
vdd#branch                        -1.17977e-11

 Reference value :  2.32764e-08
 Reference value :  5.99787e-08
 Reference value :  9.57887e-08
 Reference value :  1.32255e-07
 Reference value :  1.67430e-07
 Reference value :  2.03919e-07
 Reference value :  2.38989e-07
 Reference value :  2.75070e-07
 Reference value :  3.10880e-07
No. of Data Rows : 68032

  Measurements for Transient Analysis

tplh                =  5.41436e-09 targ=  3.09024e-08 trig=  2.54881e-08
tphl                =  5.58419e-09 targ=  1.04048e-07 trig=  9.84642e-08
i_vdd_avg           =  -2.10235e-06 from=  1.00000e-08 to=  3.30005e-07
power_avg_uw        =  3.44502e+00


Total analysis time (seconds) = 2.62978

Total elapsed time (seconds) = 2.718 

Total DRAM available = 16384.000 MB.
DRAM currently available =  137.219 MB.
Maximum ngspice program size =   18.234 MB.
Current ngspice program size =   18.234 MB.

