
Note: No compatibility mode selected!


Circuit: GF180MCU library cell mux2_4 I0_to_Z__I1=0,S=0

Doing analysis at TEMP = -21.723423 and TNOM = 27.000000

Using SPARSE 1.3 as Direct Linear Solver

Initial Transient Solution
--------------------------

Node                                   Voltage
----                                   -------
vdd                                    1.77732
i0                                           0
i1                                           0
s                                            0
xu1.int04                              1.77732
z                                  1.30119e-08
xu1.net_1                          2.56997e-06
xu1.net_3                             0.997856
xu1.sel1_n                             1.77732
xu1.net_0                              1.77732
xu1.net_2                              1.77732
vfix_s#branch                                0
vfix_i1#branch                               0
vin#branch                                   0
vdd#branch                        -1.48167e-11

 Reference value :  3.35725e-08
 Reference value :  7.50310e-08
 Reference value :  1.14231e-07
 Reference value :  1.52634e-07
 Reference value :  1.87423e-07
 Reference value :  2.22531e-07
 Reference value :  2.58151e-07
 Reference value :  2.93444e-07
 Reference value :  3.27029e-07
No. of Data Rows : 68034

  Measurements for Transient Analysis

tplh                =  3.42404e-09 targ=  3.34108e-08 trig=  2.99867e-08
tphl                =  5.62951e-09 targ=  1.17590e-07 trig=  1.11960e-07
i_vdd_avg           =  -2.78838e-07 from=  1.00000e-08 to=  3.30004e-07
power_avg_uw        =  4.95584e-01


Total analysis time (seconds) = 2.54082

Total elapsed time (seconds) = 2.619 

Total DRAM available = 16384.000 MB.
DRAM currently available =   81.203 MB.
Maximum ngspice program size =   19.703 MB.
Current ngspice program size =   19.703 MB.

