
Note: No compatibility mode selected!


Circuit: GF180MCU library cell nor2_1 A1_to_ZN__A2=0

Doing analysis at TEMP = 69.843625 and TNOM = 27.000000

Using SPARSE 1.3 as Direct Linear Solver

Initial Transient Solution
--------------------------

Node                                   Voltage
----                                   -------
vdd                                    1.69243
a1                                           0
a2                                           0
zn                                     1.69243
xu1.net_0                              1.69243
vfix_a2#branch                               0
vin#branch                                   0
vdd#branch                        -3.50175e-12

 Reference value :  8.99065e-08
 Reference value :  2.16137e-07
No. of Data Rows : 68032

  Measurements for Transient Analysis

tphl                =  1.62095e-09 targ=  2.67130e-08 trig=  2.50920e-08
tplh                =  4.62874e-09 targ=  1.01905e-07 trig=  9.72761e-08
i_vdd_avg           =  -2.90371e-07 from=  1.00000e-08 to=  3.30001e-07
power_avg_uw        =  4.91433e-01


Total analysis time (seconds) = 0.737399

Total elapsed time (seconds) = 0.813 

Total DRAM available = 16384.000 MB.
DRAM currently available =  130.906 MB.
Maximum ngspice program size =   16.703 MB.
Current ngspice program size =   16.703 MB.

