
Note: No compatibility mode selected!


Circuit: GF180MCU library cell oai21_4 A1_to_ZN__A2=0,B=1

Doing analysis at TEMP = -39.946837 and TNOM = 27.000000

Using SPARSE 1.3 as Direct Linear Solver

Initial Transient Solution
--------------------------

Node                                   Voltage
----                                   -------
vdd                                    1.88599
a1                                           0
a2                                           0
b                                      1.88599
zn                                     1.88599
xu1.net_0                          7.13497e-15
xu1.net_1_0                            1.88599
xu1.net_1_1                            1.88599
xu1.net_1_2                            1.88599
xu1.net_1_3                            1.88599
vfix_b#branch                                0
vfix_a2#branch                               0
vin#branch                                   0
vdd#branch                        -1.51679e-11

 Reference value :  1.87664e-08
 Reference value :  4.58731e-08
 Reference value :  7.41931e-08
 Reference value :  1.01593e-07
 Reference value :  1.30139e-07
 Reference value :  1.58764e-07
 Reference value :  1.86528e-07
 Reference value :  2.15483e-07
 Reference value :  2.44163e-07
 Reference value :  2.74349e-07
 Reference value :  3.04579e-07
 Reference value :  3.32644e-07
No. of Data Rows : 68032

  Measurements for Transient Analysis

tphl                =  3.10087e-09 targ=  3.00862e-08 trig=  2.69853e-08
tplh                =  6.81172e-09 targ=  1.09768e-07 trig=  1.02956e-07
i_vdd_avg           =  -2.25168e-06 from=  1.00000e-08 to=  3.30004e-07
power_avg_uw        =  4.24664e+00


Total analysis time (seconds) = 3.25951

Total elapsed time (seconds) = 3.347 

Total DRAM available = 16384.000 MB.
DRAM currently available =  130.906 MB.
Maximum ngspice program size =   17.172 MB.
Current ngspice program size =   17.172 MB.

