
Note: No compatibility mode selected!


Circuit: GF180MCU library cell nor2_1 A1_to_ZN__A2=0

Doing analysis at TEMP = 89.616854 and TNOM = 27.000000

Using SPARSE 1.3 as Direct Linear Solver

Initial Transient Solution
--------------------------

Node                                   Voltage
----                                   -------
vdd                                    1.76299
a1                                           0
a2                                           0
zn                                     1.76299
xu1.net_0                              1.76299
vfix_a2#branch                               0
vin#branch                                   0
vdd#branch                        -3.90665e-12

 Reference value :  9.12429e-08
 Reference value :  2.21303e-07
No. of Data Rows : 68032

  Measurements for Transient Analysis

tphl                =  9.58214e-09 targ=  3.89023e-08 trig=  2.93202e-08
tplh                =  2.86814e-08 targ=  1.38642e-07 trig=  1.09961e-07
i_vdd_avg           =  -2.08282e-06 from=  1.00000e-08 to=  3.30003e-07
power_avg_uw        =  3.67199e+00


Total analysis time (seconds) = 0.701278

Total elapsed time (seconds) = 0.794 

Total DRAM available = 16384.000 MB.
DRAM currently available =  150.938 MB.
Maximum ngspice program size =   17.312 MB.
Current ngspice program size =   17.312 MB.

