
Note: No compatibility mode selected!


Circuit: GF180MCU library cell mux2_4 I0_to_Z__I1=0,S=0

Doing analysis at TEMP = 57.464677 and TNOM = 27.000000

Using SPARSE 1.3 as Direct Linear Solver

Initial Transient Solution
--------------------------

Node                                   Voltage
----                                   -------
vdd                                     1.7168
i0                                           0
i1                                           0
s                                            0
xu1.int04                               1.7168
z                                  1.67735e-08
xu1.net_1                           0.00539088
xu1.net_3                              1.08775
xu1.sel1_n                              1.7168
xu1.net_0                               1.7168
xu1.net_2                               1.7168
vfix_s#branch                                0
vfix_i1#branch                               0
vin#branch                                   0
vdd#branch                         -1.4607e-11

 Reference value :  2.33364e-08
 Reference value :  5.99741e-08
 Reference value :  9.64941e-08
 Reference value :  1.33331e-07
 Reference value :  1.69351e-07
 Reference value :  2.05499e-07
 Reference value :  2.42299e-07
 Reference value :  2.79601e-07
 Reference value :  3.17126e-07
No. of Data Rows : 68030

  Measurements for Transient Analysis

tplh                =  4.01451e-09 targ=  2.90728e-08 trig=  2.50583e-08
tphl                =  4.63857e-09 targ=  1.01814e-07 trig=  9.71750e-08
i_vdd_avg           =  -1.67372e-06 from=  1.00000e-08 to=  3.30001e-07
power_avg_uw        =  2.87344e+00


Total analysis time (seconds) = 2.55906

Total elapsed time (seconds) = 2.656 

Total DRAM available = 16384.000 MB.
DRAM currently available =  124.125 MB.
Maximum ngspice program size =   17.797 MB.
Current ngspice program size =   17.797 MB.

