
Note: No compatibility mode selected!


Circuit: GF180MCU library cell nand3_4 A1_to_ZN__A2=1,A3=1

Doing analysis at TEMP = 63.216597 and TNOM = 27.000000

Using SPARSE 1.3 as Direct Linear Solver

Initial Transient Solution
--------------------------

Node                                   Voltage
----                                   -------
vdd                                    1.78658
a1                                           0
a2                                     1.78658
a3                                     1.78658
xu1.net_1_3                        2.59874e-10
xu1.net_0                          5.19747e-10
xu1.net_1_2                        2.59874e-10
xu1.net_1_1                        2.59874e-10
xu1.net_1_0                        2.59874e-10
xu1.net_0_0                        5.19747e-10
zn                                     1.78658
vfix_a3#branch                               0
vfix_a2#branch                               0
vin#branch                                   0
vdd#branch                        -7.30286e-12

 Reference value :  1.69564e-08
 Reference value :  4.53991e-08
 Reference value :  7.53191e-08
 Reference value :  1.01886e-07
 Reference value :  1.29391e-07
 Reference value :  1.57881e-07
 Reference value :  1.86844e-07
 Reference value :  2.15134e-07
 Reference value :  2.43514e-07
 Reference value :  2.74356e-07
 Reference value :  3.02066e-07
 Reference value :  3.31696e-07
No. of Data Rows : 68030

  Measurements for Transient Analysis

tphl                =  5.82095e-10 targ=  2.54179e-08 trig=  2.48358e-08
tplh                =  7.78864e-10 targ=  9.72862e-08 trig=  9.65073e-08
i_vdd_avg           =  -1.44732e-07 from=  1.00000e-08 to=  3.30001e-07
power_avg_uw        =  2.58575e-01


Total analysis time (seconds) = 3.36164

Total elapsed time (seconds) = 3.468 

Total DRAM available = 16384.000 MB.
DRAM currently available =  113.844 MB.
Maximum ngspice program size =   18.703 MB.
Current ngspice program size =   18.703 MB.

