
Note: No compatibility mode selected!


Circuit: GF180MCU library cell aoi21_4 A1_to_ZN__A2=1,B=0

Doing analysis at TEMP = -10.850154 and TNOM = 27.000000

Using SPARSE 1.3 as Direct Linear Solver

Initial Transient Solution
--------------------------

Node                                   Voltage
----                                   -------
vdd                                    1.62063
a1                                           0
a2                                     1.62063
b                                            0
xu1.net_0_0                         2.2799e-13
zn                                     1.62063
xu1.net_0_1                        2.27961e-13
xu1.net_0_2                         2.2799e-13
xu1.net_0_3                        2.27961e-13
xu1.net_1                              1.62063
vfix_b#branch                                0
vfix_a2#branch                               0
vin#branch                                   0
vdd#branch                        -1.30453e-11

 Reference value :  2.65875e-08
 Reference value :  6.01032e-08
 Reference value :  9.15332e-08
 Reference value :  1.19899e-07
 Reference value :  1.47899e-07
 Reference value :  1.74664e-07
 Reference value :  2.02458e-07
 Reference value :  2.28388e-07
 Reference value :  2.56428e-07
 Reference value :  2.83669e-07
 Reference value :  3.11254e-07
 Reference value :  3.38589e-07
No. of Data Rows : 68032

  Measurements for Transient Analysis

tphl                =  2.14087e-09 targ=  3.04287e-08 trig=  2.82878e-08
tplh                =  3.97271e-09 targ=  1.10836e-07 trig=  1.06863e-07
i_vdd_avg           =  -2.61700e-07 from=  1.00000e-08 to=  3.30004e-07
power_avg_uw        =  4.24119e-01


Total analysis time (seconds) = 3.28648

Total elapsed time (seconds) = 3.350 

Total DRAM available = 16384.000 MB.
DRAM currently available =  125.609 MB.
Maximum ngspice program size =   17.125 MB.
Current ngspice program size =   17.125 MB.

