
Note: No compatibility mode selected!


Circuit: GF180MCU library cell mux2_1 I0_to_Z__I1=0,S=0

Doing analysis at TEMP = 53.096601 and TNOM = 27.000000

Using SPARSE 1.3 as Direct Linear Solver

Initial Transient Solution
--------------------------

Node                                   Voltage
----                                   -------
vdd                                    1.76286
i0                                           0
i1                                           0
s                                            0
xu1.int04                              1.76286
z                                  1.63481e-08
xu1.net_1                            0.0165371
xu1.net_3                              1.21099
xu1.sel1_n                             1.76286
xu1.net_0                              1.76286
xu1.net_2                              1.76286
vfix_s#branch                                0
vfix_i1#branch                               0
vin#branch                                   0
vdd#branch                        -9.84393e-12

 Reference value :  3.49480e-08
 Reference value :  8.69780e-08
 Reference value :  1.38354e-07
 Reference value :  1.89953e-07
 Reference value :  2.40528e-07
 Reference value :  2.95494e-07
No. of Data Rows : 68032

  Measurements for Transient Analysis

tplh                =  1.32342e-08 targ=  3.97194e-08 trig=  2.64853e-08
tphl                =  7.82209e-09 targ=  1.09278e-07 trig=  1.01456e-07
i_vdd_avg           =  -2.20630e-06 from=  1.00000e-08 to=  3.30004e-07
power_avg_uw        =  3.88941e+00


Total analysis time (seconds) = 1.87679

Total elapsed time (seconds) = 1.966 

Total DRAM available = 16384.000 MB.
DRAM currently available =  128.344 MB.
Maximum ngspice program size =   18.016 MB.
Current ngspice program size =   18.016 MB.

