
Note: No compatibility mode selected!


Circuit: GF180MCU library cell inv_1 I_to_ZN

Doing analysis at TEMP = 42.791088 and TNOM = 27.000000

Using SPARSE 1.3 as Direct Linear Solver

Initial Transient Solution
--------------------------

Node                                   Voltage
----                                   -------
vdd                                    1.73064
i                                            0
zn                                     1.73064
vin#branch                                   0
vdd#branch                        -1.74649e-12

 Reference value :  1.44180e-07
No. of Data Rows : 68032

  Measurements for Transient Analysis

tphl                =  7.26489e-09 targ=  3.65455e-08 trig=  2.92806e-08
tplh                =  1.47680e-08 targ=  1.24610e-07 trig=  1.09842e-07
i_vdd_avg           =  -1.94012e-06 from=  1.00000e-08 to=  3.30005e-07
power_avg_uw        =  3.35766e+00


Total analysis time (seconds) = 0.443967

Total elapsed time (seconds) = 0.527 

Total DRAM available = 16384.000 MB.
DRAM currently available =  136.875 MB.
Maximum ngspice program size =   17.859 MB.
Current ngspice program size =   17.859 MB.

