
Note: No compatibility mode selected!


Circuit: GF180MCU library cell nor2_4 A1_to_ZN__A2=0

Doing analysis at TEMP = 41.681740 and TNOM = 27.000000

Using SPARSE 1.3 as Direct Linear Solver

Initial Transient Solution
--------------------------

Node                                   Voltage
----                                   -------
vdd                                    1.92245
a1                                           0
a2                                           0
zn                                     1.92245
xu1.net_0_0                            1.92245
xu1.net_0_1                            1.92245
xu1.net_0_2                            1.92245
xu1.net_0_3                            1.92245
vfix_a2#branch                               0
vin#branch                                   0
vdd#branch                        -1.55111e-11

 Reference value :  2.85825e-08
 Reference value :  6.88778e-08
 Reference value :  1.09123e-07
 Reference value :  1.49743e-07
 Reference value :  1.91663e-07
 Reference value :  2.30288e-07
 Reference value :  2.69233e-07
 Reference value :  3.07388e-07
No. of Data Rows : 68032

  Measurements for Transient Analysis

tphl                =  2.03360e-09 targ=  3.17587e-08 trig=  2.97251e-08
tplh                =  4.39203e-09 targ=  1.15567e-07 trig=  1.11175e-07
i_vdd_avg           =  -6.49793e-07 from=  1.00000e-08 to=  3.30003e-07
power_avg_uw        =  1.24919e+00


Total analysis time (seconds) = 2.5994

Total elapsed time (seconds) = 2.695 

Total DRAM available = 16384.000 MB.
DRAM currently available =   73.203 MB.
Maximum ngspice program size =   17.062 MB.
Current ngspice program size =   17.062 MB.

