
Note: No compatibility mode selected!


Circuit: GF180MCU library cell nand3_4 A1_to_ZN__A2=1,A3=1

Doing analysis at TEMP = 35.917168 and TNOM = 27.000000

Using SPARSE 1.3 as Direct Linear Solver

Initial Transient Solution
--------------------------

Node                                   Voltage
----                                   -------
vdd                                    1.64428
a1                                           0
a2                                     1.64428
a3                                     1.64428
xu1.net_1_3                        2.98629e-11
xu1.net_0                          5.97257e-11
xu1.net_1_2                        2.98629e-11
xu1.net_1_1                        2.98629e-11
xu1.net_1_0                        2.98629e-11
xu1.net_0_0                        5.97257e-11
zn                                     1.64428
vfix_a3#branch                               0
vfix_a2#branch                               0
vin#branch                                   0
vdd#branch                        -6.62973e-12

 Reference value :  1.56064e-08
 Reference value :  4.42548e-08
 Reference value :  7.15848e-08
 Reference value :  9.70498e-08
 Reference value :  1.24062e-07
 Reference value :  1.51977e-07
 Reference value :  1.80537e-07
 Reference value :  2.08790e-07
 Reference value :  2.36445e-07
 Reference value :  2.65730e-07
 Reference value :  2.94127e-07
 Reference value :  3.21857e-07
No. of Data Rows : 68030

  Measurements for Transient Analysis

tphl                =  5.52815e-09 targ=  3.45043e-08 trig=  2.89762e-08
tplh                =  7.15594e-09 targ=  1.16084e-07 trig=  1.08928e-07
i_vdd_avg           =  -1.67812e-06 from=  1.00000e-08 to=  3.30002e-07
power_avg_uw        =  2.75929e+00


Total analysis time (seconds) = 3.47494

Total elapsed time (seconds) = 3.560 

Total DRAM available = 16384.000 MB.
DRAM currently available =  130.906 MB.
Maximum ngspice program size =   17.656 MB.
Current ngspice program size =   17.656 MB.

