
Note: No compatibility mode selected!


Circuit: GF180MCU library cell nand2_1 A1_to_ZN__A2=1

Doing analysis at TEMP = 12.036941 and TNOM = 27.000000

Using SPARSE 1.3 as Direct Linear Solver

Initial Transient Solution
--------------------------

Node                                   Voltage
----                                   -------
vdd                                    1.92453
a1                                           0
a2                                     1.92453
xu1.net_0                          2.62183e-12
zn                                     1.92453
vfix_a2#branch                               0
vin#branch                                   0
vdd#branch                        -1.93491e-12

 Reference value :  8.27638e-08
 Reference value :  2.15924e-07
No. of Data Rows : 68030

  Measurements for Transient Analysis

tphl                =  7.26732e-09 targ=  3.54855e-08 trig=  2.82182e-08
tplh                =  1.03850e-08 targ=  1.17040e-07 trig=  1.06655e-07
i_vdd_avg           =  -1.84935e-06 from=  1.00000e-08 to=  3.30000e-07
power_avg_uw        =  3.55913e+00


Total analysis time (seconds) = 0.849677

Total elapsed time (seconds) = 0.928 

Total DRAM available = 16384.000 MB.
DRAM currently available =   73.203 MB.
Maximum ngspice program size =   16.594 MB.
Current ngspice program size =   16.594 MB.

