
Note: No compatibility mode selected!


Circuit: GF180MCU library cell nand3_1 A1_to_ZN__A2=1,A3=1

Doing analysis at TEMP = 6.685437 and TNOM = 27.000000

Using SPARSE 1.3 as Direct Linear Solver

Initial Transient Solution
--------------------------

Node                                   Voltage
----                                   -------
vdd                                    1.83506
a1                                           0
a2                                     1.83506
a3                                     1.83506
xu1.net_1                          1.53751e-12
xu1.net_0                          3.07503e-12
zn                                     1.83506
vfix_a3#branch                               0
vfix_a2#branch                               0
vin#branch                                   0
vdd#branch                        -1.84527e-12

 Reference value :  6.71948e-08
 Reference value :  1.64752e-07
 Reference value :  2.62472e-07
No. of Data Rows : 68030

  Measurements for Transient Analysis

tphl                =  2.19089e-09 targ=  2.73345e-08 trig=  2.51436e-08
tplh                =  2.74624e-09 targ=  1.00177e-07 trig=  9.74309e-08
i_vdd_avg           =  -3.47614e-07 from=  1.00000e-08 to=  3.30002e-07
power_avg_uw        =  6.37893e-01


Total analysis time (seconds) = 0.958442

Total elapsed time (seconds) = 1.040 

Total DRAM available = 16384.000 MB.
DRAM currently available =   88.094 MB.
Maximum ngspice program size =   17.984 MB.
Current ngspice program size =   17.984 MB.

