
Note: No compatibility mode selected!


Circuit: GF180MCU library cell oai21_4 A1_to_ZN__A2=0,B=1

Doing analysis at TEMP = 76.237790 and TNOM = 27.000000

Using SPARSE 1.3 as Direct Linear Solver

Initial Transient Solution
--------------------------

Node                                   Voltage
----                                   -------
vdd                                    1.93224
a1                                           0
a2                                           0
b                                      1.93224
zn                                     1.93224
xu1.net_0                          1.26613e-09
xu1.net_1_0                            1.93224
xu1.net_1_1                            1.93224
xu1.net_1_2                            1.93224
xu1.net_1_3                            1.93224
vfix_b#branch                                0
vfix_a2#branch                               0
vin#branch                                   0
vdd#branch                         -1.6152e-11

 Reference value :  1.97714e-08
 Reference value :  4.80487e-08
 Reference value :  7.51837e-08
 Reference value :  1.01610e-07
 Reference value :  1.29600e-07
 Reference value :  1.55790e-07
 Reference value :  1.81730e-07
 Reference value :  2.09699e-07
 Reference value :  2.37709e-07
 Reference value :  2.65550e-07
 Reference value :  2.92055e-07
 Reference value :  3.21595e-07
No. of Data Rows : 68032

  Measurements for Transient Analysis

tphl                =  6.62753e-10 targ=  2.57409e-08 trig=  2.50781e-08
tplh                =  1.29773e-09 targ=  9.85321e-08 trig=  9.72344e-08
i_vdd_avg           =  -2.89826e-07 from=  1.00000e-08 to=  3.30005e-07
power_avg_uw        =  5.60014e-01


Total analysis time (seconds) = 3.41156

Total elapsed time (seconds) = 3.502 

Total DRAM available = 16384.000 MB.
DRAM currently available =  133.922 MB.
Maximum ngspice program size =   18.047 MB.
Current ngspice program size =   18.047 MB.

