
Note: No compatibility mode selected!


Circuit: GF180MCU library cell nand3_4 A1_to_ZN__A2=1,A3=1

Doing analysis at TEMP = 79.598942 and TNOM = 27.000000

Using SPARSE 1.3 as Direct Linear Solver

Initial Transient Solution
--------------------------

Node                                   Voltage
----                                   -------
vdd                                    1.80321
a1                                           0
a2                                     1.80321
a3                                     1.80321
xu1.net_1_3                        8.39273e-10
xu1.net_0                          1.67855e-09
xu1.net_1_2                        8.39273e-10
xu1.net_1_1                        8.39273e-10
xu1.net_1_0                        8.39273e-10
xu1.net_0_0                        1.67855e-09
zn                                     1.80321
vfix_a3#branch                               0
vfix_a2#branch                               0
vin#branch                                   0
vdd#branch                        -7.61881e-12

 Reference value :  1.83414e-08
 Reference value :  4.67021e-08
 Reference value :  7.45121e-08
 Reference value :  1.03787e-07
 Reference value :  1.32677e-07
 Reference value :  1.62332e-07
 Reference value :  1.91833e-07
 Reference value :  2.19327e-07
 Reference value :  2.45927e-07
 Reference value :  2.73742e-07
 Reference value :  3.02012e-07
 Reference value :  3.29392e-07
No. of Data Rows : 68032

  Measurements for Transient Analysis

tphl                =  4.02081e-09 targ=  3.38781e-08 trig=  2.98573e-08
tplh                =  5.50783e-09 targ=  1.17080e-07 trig=  1.11572e-07
i_vdd_avg           =  -1.16623e-06 from=  1.00000e-08 to=  3.30002e-07
power_avg_uw        =  2.10295e+00


Total analysis time (seconds) = 3.54376

Total elapsed time (seconds) = 3.634 

Total DRAM available = 16384.000 MB.
DRAM currently available =   73.203 MB.
Maximum ngspice program size =   17.516 MB.
Current ngspice program size =   17.516 MB.

