
Note: No compatibility mode selected!


Circuit: GF180MCU library cell inv_4 I_to_ZN

Doing analysis at TEMP = 69.618245 and TNOM = 27.000000

Using SPARSE 1.3 as Direct Linear Solver

Initial Transient Solution
--------------------------

Node                                   Voltage
----                                   -------
vdd                                    1.92119
i                                            0
zn                                     1.92119
vin#branch                                   0
vdd#branch                        -7.91874e-12

 Reference value :  5.08567e-08
 Reference value :  1.27696e-07
 Reference value :  2.07022e-07
 Reference value :  2.85101e-07
No. of Data Rows : 68032

  Measurements for Transient Analysis

tphl                =  1.70398e-09 targ=  2.77711e-08 trig=  2.60671e-08
tplh                =  2.84382e-09 targ=  1.03045e-07 trig=  1.00201e-07
i_vdd_avg           =  -1.54187e-06 from=  1.00000e-08 to=  3.30001e-07
power_avg_uw        =  2.96224e+00


Total analysis time (seconds) = 1.20741

Total elapsed time (seconds) = 1.291 

Total DRAM available = 16384.000 MB.
DRAM currently available =  130.906 MB.
Maximum ngspice program size =   16.469 MB.
Current ngspice program size =   16.469 MB.

