
Note: No compatibility mode selected!


Circuit: XOR2 seed characterization sample 4014036

Doing analysis at TEMP = -16.756800 and TNOM = 27.000000

Using SPARSE 1.3 as Direct Linear Solver

Initial Transient Solution
--------------------------

Node                                   Voltage
----                                   -------
vdd                                    1.71993
in                                           0
b                                      1.71993
abar                                   1.71993
bbar                               8.80133e-10
out                                    1.71993
vb#branch                                    0
vin#branch                         1.73092e-12
vdd#branch                        -1.03813e-11

 Reference value :  2.69133e-08
 Reference value :  6.24173e-08
 Reference value :  1.00064e-07
No. of Data Rows : 60047

  Measurements for Transient Analysis

tphl                =  2.46666e-10 targ=  2.29424e-09 trig=  2.04757e-09
tplh                =  3.06398e-10 targ=  2.24491e-08 trig=  2.21427e-08
i_vdd_avg           =  -5.24035e-06 from=  5.00000e-09 to=  1.10001e-07
power_avg_uw        =  9.01304e+00


Total analysis time (seconds) = 0.789589

Total elapsed time (seconds) = 0.861 

Total DRAM available = 16384.000 MB.
DRAM currently available =  250.078 MB.
Maximum ngspice program size =   14.281 MB.
Current ngspice program size =   14.281 MB.

