
Note: No compatibility mode selected!


Circuit: INV seed characterization sample 4014001

Doing analysis at TEMP = -1.729640 and TNOM = 27.000000

Using SPARSE 1.3 as Direct Linear Solver

Initial Transient Solution
--------------------------

Node                                   Voltage
----                                   -------
vdd                                    1.83214
in                                           0
out                                    1.83214
vin#branch                                   0
vdd#branch                        -1.84591e-12

 Reference value :  7.35484e-08
No. of Data Rows : 60041

  Measurements for Transient Analysis

tphl                =  1.70275e-10 targ=  2.18763e-09 trig=  2.01735e-09
tplh                =  3.17547e-10 targ=  2.23696e-08 trig=  2.20521e-08
i_vdd_avg           =  -5.41493e-06 from=  5.00000e-09 to=  1.10000e-07
power_avg_uw        =  9.92090e+00


Total analysis time (seconds) = 0.287758

Total elapsed time (seconds) = 0.357 

Total DRAM available = 16384.000 MB.
DRAM currently available =  208.375 MB.
Maximum ngspice program size =   12.594 MB.
Current ngspice program size =   11.625 MB.

