
Note: No compatibility mode selected!


Circuit: INV seed characterization sample 4014041

Doing analysis at TEMP = -12.022700 and TNOM = 27.000000

Using SPARSE 1.3 as Direct Linear Solver

Initial Transient Solution
--------------------------

Node                                   Voltage
----                                   -------
vdd                                    1.65384
in                                           0
out                                    1.65384
vin#branch                                   0
vdd#branch                        -1.66463e-12

 Reference value :  7.34648e-08
No. of Data Rows : 60044

  Measurements for Transient Analysis

tphl                =  1.05937e-10 targ=  2.13589e-09 trig=  2.02995e-09
tplh                =  1.18996e-10 targ=  2.22089e-08 trig=  2.20899e-08
i_vdd_avg           =  -1.78153e-06 from=  5.00000e-09 to=  1.10001e-07
power_avg_uw        =  2.94636e+00


Total analysis time (seconds) = 0.293356

Total elapsed time (seconds) = 0.362 

Total DRAM available = 16384.000 MB.
DRAM currently available =  285.031 MB.
Maximum ngspice program size =   12.562 MB.
Current ngspice program size =   12.219 MB.

