
Note: No compatibility mode selected!


Circuit: NOR2 seed characterization sample 4014011

Doing analysis at TEMP = 76.838400 and TNOM = 27.000000

Using SPARSE 1.3 as Direct Linear Solver

Initial Transient Solution
--------------------------

Node                                   Voltage
----                                   -------
vdd                                    1.63977
in                                           0
out                                    1.63977
pmid                                   1.63977
vin#branch                                   0
vdd#branch                        -7.63047e-12

 Reference value :  4.73933e-08
 Reference value :  1.08732e-07
No. of Data Rows : 60044

  Measurements for Transient Analysis

tphl                =  1.57288e-10 targ=  2.21243e-09 trig=  2.05514e-09
tplh                =  6.07219e-10 targ=  2.27726e-08 trig=  2.21654e-08
i_vdd_avg           =  -5.55315e-06 from=  5.00000e-09 to=  1.10002e-07
power_avg_uw        =  9.10589e+00


Total analysis time (seconds) = 0.473366

Total elapsed time (seconds) = 0.540 

Total DRAM available = 16384.000 MB.
DRAM currently available =  229.188 MB.
Maximum ngspice program size =   12.562 MB.
Current ngspice program size =   11.906 MB.

