
Note: No compatibility mode selected!


Circuit: XOR2 seed characterization sample 4014012

Doing analysis at TEMP = 82.293000 and TNOM = 27.000000

Using SPARSE 1.3 as Direct Linear Solver

Initial Transient Solution
--------------------------

Node                                   Voltage
----                                   -------
vdd                                    1.69452
in                                           0
b                                      1.69452
abar                                   1.69452
bbar                               1.56893e-09
out                                    1.69452
vb#branch                                    0
vin#branch                         6.85456e-12
vdd#branch                        -1.94138e-11

 Reference value :  2.72425e-08
 Reference value :  6.28365e-08
 Reference value :  1.00388e-07
No. of Data Rows : 60065

  Measurements for Transient Analysis

tphl                =  3.10539e-10 targ=  2.31583e-09 trig=  2.00529e-09
tplh                =  3.19722e-10 targ=  2.23356e-08 trig=  2.20159e-08
i_vdd_avg           =  -5.61720e-06 from=  5.00000e-09 to=  1.10001e-07
power_avg_uw        =  9.51846e+00


Total analysis time (seconds) = 0.791106

Total elapsed time (seconds) = 0.860 

Total DRAM available = 16384.000 MB.
DRAM currently available =  239.719 MB.
Maximum ngspice program size =   12.578 MB.
Current ngspice program size =   11.719 MB.

