
Note: No compatibility mode selected!


Circuit: NOR2 seed characterization sample 4014015

Doing analysis at TEMP = 20.747200 and TNOM = 27.000000

Using SPARSE 1.3 as Direct Linear Solver

Initial Transient Solution
--------------------------

Node                                   Voltage
----                                   -------
vdd                                    1.69022
in                                           0
out                                    1.69022
pmid                                   1.69022
vin#branch                                   0
vdd#branch                        -3.43077e-12

 Reference value :  4.69013e-08
 Reference value :  1.07338e-07
No. of Data Rows : 60044

  Measurements for Transient Analysis

tphl                =  2.73542e-10 targ=  2.44172e-09 trig=  2.16817e-09
tplh                =  1.36452e-09 targ=  2.38690e-08 trig=  2.25045e-08
i_vdd_avg           =  -5.34323e-06 from=  5.00000e-09 to=  1.10002e-07
power_avg_uw        =  9.03124e+00


Total analysis time (seconds) = 0.477906

Total elapsed time (seconds) = 0.546 

Total DRAM available = 16384.000 MB.
DRAM currently available =  219.359 MB.
Maximum ngspice program size =   12.562 MB.
Current ngspice program size =   11.656 MB.

