
Note: No compatibility mode selected!


Circuit: XOR2 seed characterization sample 4014044

Doing analysis at TEMP = 90.682800 and TNOM = 27.000000

Using SPARSE 1.3 as Direct Linear Solver

Initial Transient Solution
--------------------------

Node                                   Voltage
----                                   -------
vdd                                    1.84489
in                                           0
b                                      1.84489
abar                                   1.84489
bbar                               2.81454e-09
out                                    1.84489
vb#branch                                    0
vin#branch                         6.67702e-12
vdd#branch                        -1.96745e-11

 Reference value :  2.62512e-08
 Reference value :  6.11801e-08
 Reference value :  9.81521e-08
No. of Data Rows : 60047

  Measurements for Transient Analysis

tphl                =  5.06534e-10 targ=  2.69609e-09 trig=  2.18955e-09
tplh                =  6.52357e-10 targ=  2.32210e-08 trig=  2.25687e-08
i_vdd_avg           =  -5.32837e-06 from=  5.00000e-09 to=  1.10001e-07
power_avg_uw        =  9.83026e+00


Total analysis time (seconds) = 0.804935

Total elapsed time (seconds) = 0.877 

Total DRAM available = 16384.000 MB.
DRAM currently available =  301.891 MB.
Maximum ngspice program size =   12.578 MB.
Current ngspice program size =   11.953 MB.

