
Note: No compatibility mode selected!


Circuit: NAND2 seed characterization sample 4014034

Doing analysis at TEMP = 11.425900 and TNOM = 27.000000

Using SPARSE 1.3 as Direct Linear Solver

Initial Transient Solution
--------------------------

Node                                   Voltage
----                                   -------
vdd                                    1.78677
in                                           0
out                                    1.78677
nmid                                0.00414104
vin#branch                                   0
vdd#branch                        -1.80848e-12

 Reference value :  4.75749e-08
 Reference value :  1.09539e-07
No. of Data Rows : 60044

  Measurements for Transient Analysis

tphl                =  3.42956e-10 targ=  2.57392e-09 trig=  2.23096e-09
tplh                =  2.08727e-10 targ=  2.29016e-08 trig=  2.26929e-08
i_vdd_avg           =  -3.63745e-06 from=  5.00000e-09 to=  1.10001e-07
power_avg_uw        =  6.49929e+00


Total analysis time (seconds) = 0.466761

Total elapsed time (seconds) = 0.536 

Total DRAM available = 16384.000 MB.
DRAM currently available =  250.078 MB.
Maximum ngspice program size =   12.562 MB.
Current ngspice program size =   11.625 MB.

