
Note: No compatibility mode selected!


Circuit: NAND2 seed characterization sample 4014030

Doing analysis at TEMP = 94.281700 and TNOM = 27.000000

Using SPARSE 1.3 as Direct Linear Solver

Initial Transient Solution
--------------------------

Node                                   Voltage
----                                   -------
vdd                                    1.97192
in                                           0
out                                    1.97192
nmid                                 0.0460234
vin#branch                                   0
vdd#branch                        -2.40153e-12

 Reference value :  4.54570e-08
 Reference value :  1.05357e-07
No. of Data Rows : 60044

  Measurements for Transient Analysis

tphl                =  2.28716e-10 targ=  2.33571e-09 trig=  2.10699e-09
tplh                =  1.18737e-10 targ=  2.24397e-08 trig=  2.23210e-08
i_vdd_avg           =  -8.05414e-07 from=  5.00000e-09 to=  1.10001e-07
power_avg_uw        =  1.58821e+00


Total analysis time (seconds) = 0.480324

Total elapsed time (seconds) = 0.553 

Total DRAM available = 16384.000 MB.
DRAM currently available =  223.375 MB.
Maximum ngspice program size =   12.562 MB.
Current ngspice program size =   12.297 MB.

