
Note: No compatibility mode selected!


Circuit: XOR2 seed characterization sample 4410046

Doing analysis at TEMP = 32.418900 and TNOM = 27.000000

Using SPARSE 1.3 as Direct Linear Solver

Initial Transient Solution
--------------------------

Node                                   Voltage
----                                   -------
vdd                                    1.72816
in                                           0
b                                      1.72816
abar                                   1.72816
bbar                               1.38084e-09
out                                    1.72816
vb#branch                                    0
vin#branch                         1.84614e-12
vdd#branch                        -1.06209e-11

 Reference value :  2.61712e-08
 Reference value :  6.14141e-08
 Reference value :  9.85341e-08
No. of Data Rows : 60047

  Measurements for Transient Analysis

tphl                =  2.04670e-10 targ=  2.25322e-09 trig=  2.04855e-09
tplh                =  2.99857e-10 targ=  2.24455e-08 trig=  2.21457e-08
i_vdd_avg           =  -2.98802e-06 from=  5.00000e-09 to=  1.10001e-07
power_avg_uw        =  5.16378e+00


Total analysis time (seconds) = 0.797602

Total elapsed time (seconds) = 0.871 

Total DRAM available = 16384.000 MB.
DRAM currently available =  280.672 MB.
Maximum ngspice program size =   12.578 MB.
Current ngspice program size =   11.750 MB.

