
Note: No compatibility mode selected!


Circuit: NOR2 seed characterization sample 4410044

Doing analysis at TEMP = 63.032100 and TNOM = 27.000000

Using SPARSE 1.3 as Direct Linear Solver

Initial Transient Solution
--------------------------

Node                                   Voltage
----                                   -------
vdd                                    1.74614
in                                           0
out                                    1.74614
pmid                                   1.74614
vin#branch                                   0
vdd#branch                        -4.65309e-12

 Reference value :  4.47285e-08
 Reference value :  1.03910e-07
No. of Data Rows : 60044

  Measurements for Transient Analysis

tphl                =  1.66452e-10 targ=  2.27022e-09 trig=  2.10376e-09
tplh                =  6.67931e-10 targ=  2.29792e-08 trig=  2.23113e-08
i_vdd_avg           =  -3.85976e-06 from=  5.00000e-09 to=  1.10000e-07
power_avg_uw        =  6.73968e+00


Total analysis time (seconds) = 0.487659

Total elapsed time (seconds) = 0.560 

Total DRAM available = 16384.000 MB.
DRAM currently available =  261.844 MB.
Maximum ngspice program size =   12.562 MB.
Current ngspice program size =   11.906 MB.

