
Note: No compatibility mode selected!


Circuit: INV seed characterization sample 4410037

Doing analysis at TEMP = 23.340400 and TNOM = 27.000000

Using SPARSE 1.3 as Direct Linear Solver

Initial Transient Solution
--------------------------

Node                                   Voltage
----                                   -------
vdd                                    1.80659
in                                           0
out                                    1.80659
vin#branch                                   0
vdd#branch                        -1.83737e-12

 Reference value :  6.50870e-08
No. of Data Rows : 60044

  Measurements for Transient Analysis

tphl                =  3.24364e-10 targ=  2.39336e-09 trig=  2.06899e-09
tplh                =  3.48351e-10 targ=  2.25553e-08 trig=  2.22070e-08
i_vdd_avg           =  -4.84848e-06 from=  5.00000e-09 to=  1.10001e-07
power_avg_uw        =  8.75922e+00


Total analysis time (seconds) = 0.31504

Total elapsed time (seconds) = 0.393 

Total DRAM available = 16384.000 MB.
DRAM currently available =  272.234 MB.
Maximum ngspice program size =   12.562 MB.
Current ngspice program size =   11.594 MB.

