
Note: No compatibility mode selected!


Circuit: NAND2 seed characterization sample 4410042

Doing analysis at TEMP = 3.815270 and TNOM = 27.000000

Using SPARSE 1.3 as Direct Linear Solver

Initial Transient Solution
--------------------------

Node                                   Voltage
----                                   -------
vdd                                    1.64823
in                                           0
out                                    1.64823
nmid                                0.00218606
vin#branch                                   0
vdd#branch                        -1.66444e-12

 Reference value :  4.59743e-08
 Reference value :  1.06478e-07
No. of Data Rows : 60047

  Measurements for Transient Analysis

tphl                =  4.35105e-10 targ=  2.65575e-09 trig=  2.22065e-09
tplh                =  2.46701e-10 targ=  2.29086e-08 trig=  2.26619e-08
i_vdd_avg           =  -4.89969e-06 from=  5.00000e-09 to=  1.10002e-07
power_avg_uw        =  8.07581e+00


Total analysis time (seconds) = 0.476801

Total elapsed time (seconds) = 0.549 

Total DRAM available = 16384.000 MB.
DRAM currently available =  261.844 MB.
Maximum ngspice program size =   12.562 MB.
Current ngspice program size =   11.625 MB.

