
Note: No compatibility mode selected!


Circuit: XOR2 seed characterization sample 4410032

Doing analysis at TEMP = 9.987730 and TNOM = 27.000000

Using SPARSE 1.3 as Direct Linear Solver

Initial Transient Solution
--------------------------

Node                                   Voltage
----                                   -------
vdd                                    1.88277
in                                           0
b                                      1.88277
abar                                   1.88277
bbar                               1.34205e-09
out                                    1.88277
vb#branch                                    0
vin#branch                         1.90725e-12
vdd#branch                        -1.13823e-11

 Reference value :  2.31647e-08
 Reference value :  5.58689e-08
 Reference value :  9.06129e-08
No. of Data Rows : 60044

  Measurements for Transient Analysis

tphl                =  2.17000e-10 targ=  2.30793e-09 trig=  2.09093e-09
tplh                =  3.26038e-10 targ=  2.25988e-08 trig=  2.22728e-08
i_vdd_avg           =  -3.57759e-06 from=  5.00000e-09 to=  1.10001e-07
power_avg_uw        =  6.73578e+00


Total analysis time (seconds) = 0.858388

Total elapsed time (seconds) = 0.937 

Total DRAM available = 16384.000 MB.
DRAM currently available =  271.422 MB.
Maximum ngspice program size =   12.656 MB.
Current ngspice program size =   12.656 MB.

