
Note: No compatibility mode selected!


Circuit: NAND2 seed characterization sample 4410038

Doing analysis at TEMP = 47.807500 and TNOM = 27.000000

Using SPARSE 1.3 as Direct Linear Solver

Initial Transient Solution
--------------------------

Node                                   Voltage
----                                   -------
vdd                                    1.75644
in                                           0
out                                    1.75644
nmid                                 0.0236152
vin#branch                                   0
vdd#branch                        -1.84913e-12

 Reference value :  4.18847e-08
 Reference value :  1.00288e-07
No. of Data Rows : 60047

  Measurements for Transient Analysis

tphl                =  1.25807e-10 targ=  2.13247e-09 trig=  2.00666e-09
tplh                =  5.45798e-11 targ=  2.20746e-08 trig=  2.20200e-08
i_vdd_avg           =  -1.03845e-06 from=  5.00000e-09 to=  1.10001e-07
power_avg_uw        =  1.82398e+00


Total analysis time (seconds) = 0.494604

Total elapsed time (seconds) = 0.573 

Total DRAM available = 16384.000 MB.
DRAM currently available =  272.234 MB.
Maximum ngspice program size =   12.562 MB.
Current ngspice program size =   11.625 MB.

