
Note: No compatibility mode selected!


Circuit: XOR2 seed characterization sample 4410040

Doing analysis at TEMP = 90.548900 and TNOM = 27.000000

Using SPARSE 1.3 as Direct Linear Solver

Initial Transient Solution
--------------------------

Node                                   Voltage
----                                   -------
vdd                                    1.82624
in                                           0
b                                      1.82624
abar                                   1.82624
bbar                               1.71836e-09
out                                    1.82624
vb#branch                                    0
vin#branch                         1.15154e-11
vdd#branch                        -2.82923e-11

 Reference value :  2.39033e-08
 Reference value :  5.72991e-08
 Reference value :  9.29991e-08
No. of Data Rows : 60044

  Measurements for Transient Analysis

tphl                =  3.18686e-10 targ=  2.47575e-09 trig=  2.15707e-09
tplh                =  3.28008e-10 targ=  2.27992e-08 trig=  2.24712e-08
i_vdd_avg           =  -5.48205e-06 from=  5.00000e-09 to=  1.10001e-07
power_avg_uw        =  1.00115e+01


Total analysis time (seconds) = 0.835097

Total elapsed time (seconds) = 0.913 

Total DRAM available = 16384.000 MB.
DRAM currently available =  272.234 MB.
Maximum ngspice program size =   12.562 MB.
Current ngspice program size =   11.656 MB.

