
Note: No compatibility mode selected!


Circuit: XOR2 seed characterization sample 4410009

Doing analysis at TEMP = 78.872000 and TNOM = 27.000000

Using SPARSE 1.3 as Direct Linear Solver

Initial Transient Solution
--------------------------

Node                                   Voltage
----                                   -------
vdd                                    1.75231
in                                           0
b                                      1.75231
abar                                   1.75231
bbar                                1.6942e-09
out                                    1.75231
vb#branch                                    0
vin#branch                         5.41019e-12
vdd#branch                        -1.70708e-11

 Reference value :  2.56021e-08
 Reference value :  5.90504e-08
 Reference value :  9.28624e-08
No. of Data Rows : 60044

  Measurements for Transient Analysis

tphl                =  2.54140e-10 targ=  2.28190e-09 trig=  2.02776e-09
tplh                =  2.67386e-10 targ=  2.23507e-08 trig=  2.20833e-08
i_vdd_avg           =  -4.07082e-06 from=  5.00000e-09 to=  1.10000e-07
power_avg_uw        =  7.13333e+00


Total analysis time (seconds) = 0.843457

Total elapsed time (seconds) = 0.917 

Total DRAM available = 16384.000 MB.
DRAM currently available =  256.828 MB.
Maximum ngspice program size =   12.578 MB.
Current ngspice program size =   12.078 MB.

