
Note: No compatibility mode selected!


Circuit: NAND2 seed characterization sample 4410031

Doing analysis at TEMP = -14.078800 and TNOM = 27.000000

Using SPARSE 1.3 as Direct Linear Solver

Initial Transient Solution
--------------------------

Node                                   Voltage
----                                   -------
vdd                                    1.87802
in                                           0
out                                    1.87802
nmid                               0.000226153
vin#branch                                   0
vdd#branch                        -1.88867e-12

 Reference value :  4.06935e-08
 Reference value :  9.74992e-08
No. of Data Rows : 60044

  Measurements for Transient Analysis

tphl                =  2.34307e-10 targ=  2.38942e-09 trig=  2.15511e-09
tplh                =  1.35514e-10 targ=  2.26009e-08 trig=  2.24653e-08
i_vdd_avg           =  -2.15777e-06 from=  5.00000e-09 to=  1.10001e-07
power_avg_uw        =  4.05234e+00


Total analysis time (seconds) = 0.508827

Total elapsed time (seconds) = 0.586 

Total DRAM available = 16384.000 MB.
DRAM currently available =  271.422 MB.
Maximum ngspice program size =   12.562 MB.
Current ngspice program size =   11.656 MB.

