
Note: No compatibility mode selected!


Circuit: NOR2 seed characterization sample 4410018

Doing analysis at TEMP = 39.570600 and TNOM = 27.000000

Using SPARSE 1.3 as Direct Linear Solver

Initial Transient Solution
--------------------------

Node                                   Voltage
----                                   -------
vdd                                    1.95712
in                                           0
out                                    1.95712
pmid                                   1.95712
vin#branch                                   0
vdd#branch                        -4.21587e-12

 Reference value :  4.68912e-08
 Reference value :  1.09327e-07
No. of Data Rows : 60044

  Measurements for Transient Analysis

tphl                =  1.49534e-10 targ=  2.27363e-09 trig=  2.12409e-09
tplh                =  5.81356e-10 targ=  2.29536e-08 trig=  2.23723e-08
i_vdd_avg           =  -4.95531e-06 from=  5.00000e-09 to=  1.10001e-07
power_avg_uw        =  9.69813e+00


Total analysis time (seconds) = 0.462399

Total elapsed time (seconds) = 0.532 

Total DRAM available = 16384.000 MB.
DRAM currently available =  249.047 MB.
Maximum ngspice program size =   12.562 MB.
Current ngspice program size =   11.625 MB.

