
Note: No compatibility mode selected!


Circuit: XOR2 seed characterization sample 4410029

Doing analysis at TEMP = 73.073900 and TNOM = 27.000000

Using SPARSE 1.3 as Direct Linear Solver

Initial Transient Solution
--------------------------

Node                                   Voltage
----                                   -------
vdd                                    1.94917
in                                           0
b                                      1.94917
abar                                   1.94917
bbar                               1.47327e-09
out                                    1.94917
vb#branch                                    0
vin#branch                         5.01057e-12
vdd#branch                        -1.71929e-11

 Reference value :  2.28368e-08
 Reference value :  5.54099e-08
 Reference value :  8.99419e-08
No. of Data Rows : 60041

  Measurements for Transient Analysis

tphl                =  2.20327e-10 targ=  2.33477e-09 trig=  2.11444e-09
tplh                =  2.37288e-10 targ=  2.25806e-08 trig=  2.23433e-08
i_vdd_avg           =  -3.96296e-06 from=  5.00000e-09 to=  1.10001e-07
power_avg_uw        =  7.72449e+00


Total analysis time (seconds) = 0.862144

Total elapsed time (seconds) = 0.942 

Total DRAM available = 16384.000 MB.
DRAM currently available =  271.422 MB.
Maximum ngspice program size =   12.922 MB.
Current ngspice program size =   12.922 MB.

