
Note: No compatibility mode selected!


Circuit: INV seed characterization sample 4410016

Doing analysis at TEMP = 25.939100 and TNOM = 27.000000

Using SPARSE 1.3 as Direct Linear Solver

Initial Transient Solution
--------------------------

Node                                   Voltage
----                                   -------
vdd                                    1.72915
in                                           0
out                                    1.72915
vin#branch                                   0
vdd#branch                        -1.80166e-12

 Reference value :  7.26557e-08
No. of Data Rows : 60047

  Measurements for Transient Analysis

tphl                =  2.70873e-10 targ=  2.46755e-09 trig=  2.19668e-09
tplh                =  3.18153e-10 targ=  2.29082e-08 trig=  2.25900e-08
i_vdd_avg           =  -5.55682e-06 from=  5.00000e-09 to=  1.10002e-07
power_avg_uw        =  9.60857e+00


Total analysis time (seconds) = 0.298167

Total elapsed time (seconds) = 0.368 

Total DRAM available = 16384.000 MB.
DRAM currently available =  258.453 MB.
Maximum ngspice program size =   12.562 MB.
Current ngspice program size =   11.594 MB.

