
Note: No compatibility mode selected!


Circuit: INV seed characterization sample 4410019

Doing analysis at TEMP = 64.236000 and TNOM = 27.000000

Using SPARSE 1.3 as Direct Linear Solver

Initial Transient Solution
--------------------------

Node                                   Voltage
----                                   -------
vdd                                    1.89607
in                                           0
out                                    1.89607
vin#branch                                   0
vdd#branch                        -3.20135e-12

 Reference value :  7.41338e-08
No. of Data Rows : 60044

  Measurements for Transient Analysis

tphl                =  2.07962e-10 targ=  2.38717e-09 trig=  2.17921e-09
tplh                =  3.16919e-10 targ=  2.28545e-08 trig=  2.25376e-08
i_vdd_avg           =  -4.36453e-06 from=  5.00000e-09 to=  1.10002e-07
power_avg_uw        =  8.27546e+00


Total analysis time (seconds) = 0.292673

Total elapsed time (seconds) = 0.361 

Total DRAM available = 16384.000 MB.
DRAM currently available =  262.281 MB.
Maximum ngspice program size =   12.562 MB.
Current ngspice program size =   11.625 MB.

