
Note: No compatibility mode selected!


Circuit: XOR2 seed characterization sample 4410006

Doing analysis at TEMP = 86.512600 and TNOM = 27.000000

Using SPARSE 1.3 as Direct Linear Solver

Initial Transient Solution
--------------------------

Node                                   Voltage
----                                   -------
vdd                                    1.89863
in                                           0
b                                      1.89863
abar                                   1.89863
bbar                               2.97111e-09
out                                    1.89863
vb#branch                                    0
vin#branch                         5.42821e-12
vdd#branch                        -1.76792e-11

 Reference value :  2.72496e-08
 Reference value :  6.27293e-08
 Reference value :  9.85193e-08
No. of Data Rows : 60044

  Measurements for Transient Analysis

tphl                =  6.41585e-10 targ=  2.84874e-09 trig=  2.20716e-09
tplh                =  7.25468e-10 targ=  2.33469e-08 trig=  2.26215e-08
i_vdd_avg           =  -7.02508e-06 from=  5.00000e-09 to=  1.10002e-07
power_avg_uw        =  1.33380e+01


Total analysis time (seconds) = 0.809756

Total elapsed time (seconds) = 0.880 

Total DRAM available = 16384.000 MB.
DRAM currently available =  257.375 MB.
Maximum ngspice program size =   12.578 MB.
Current ngspice program size =   11.594 MB.

