
Note: No compatibility mode selected!


Circuit: NOR2 seed characterization sample 4410001

Doing analysis at TEMP = -10.562700 and TNOM = 27.000000

Using SPARSE 1.3 as Direct Linear Solver

Initial Transient Solution
--------------------------

Node                                   Voltage
----                                   -------
vdd                                    1.71898
in                                           0
out                                    1.71898
pmid                                   1.71898
vin#branch                                   0
vdd#branch                        -3.45844e-12

 Reference value :  4.66247e-08
 Reference value :  1.07804e-07
No. of Data Rows : 60044

  Measurements for Transient Analysis

tphl                =  3.79596e-10 targ=  2.44144e-09 trig=  2.06185e-09
tplh                =  1.83620e-09 targ=  2.40217e-08 trig=  2.21855e-08
i_vdd_avg           =  -4.93112e-06 from=  5.00000e-09 to=  1.10000e-07
power_avg_uw        =  8.47650e+00


Total analysis time (seconds) = 0.469258

Total elapsed time (seconds) = 0.539 

Total DRAM available = 16384.000 MB.
DRAM currently available =  258.000 MB.
Maximum ngspice program size =   12.562 MB.
Current ngspice program size =   11.969 MB.

