
Note: No compatibility mode selected!


Circuit: NOR2 seed characterization sample 4410034

Doing analysis at TEMP = 29.407700 and TNOM = 27.000000

Using SPARSE 1.3 as Direct Linear Solver

Initial Transient Solution
--------------------------

Node                                   Voltage
----                                   -------
vdd                                    1.69425
in                                           0
out                                    1.69425
pmid                                   1.69425
vin#branch                                   0
vdd#branch                        -3.52283e-12

 Reference value :  4.03026e-08
 Reference value :  9.57007e-08
No. of Data Rows : 60044

  Measurements for Transient Analysis

tphl                =  5.92860e-11 targ=  2.07819e-09 trig=  2.01890e-09
tplh                =  2.23925e-10 targ=  2.22806e-08 trig=  2.20567e-08
i_vdd_avg           =  -2.14564e-06 from=  5.00000e-09 to=  1.10001e-07
power_avg_uw        =  3.63526e+00


Total analysis time (seconds) = 0.516437

Total elapsed time (seconds) = 0.594 

Total DRAM available = 16384.000 MB.
DRAM currently available =  272.047 MB.
Maximum ngspice program size =   12.562 MB.
Current ngspice program size =   11.906 MB.

