
Note: No compatibility mode selected!


Circuit: INV seed characterization sample 4410003

Doing analysis at TEMP = 69.421800 and TNOM = 27.000000

Using SPARSE 1.3 as Direct Linear Solver

Initial Transient Solution
--------------------------

Node                                   Voltage
----                                   -------
vdd                                    1.95134
in                                           0
out                                    1.95134
vin#branch                                   0
vdd#branch                        -2.45679e-12

 Reference value :  7.34211e-08
No. of Data Rows : 60044

  Measurements for Transient Analysis

tphl                =  2.22869e-10 targ=  2.35791e-09 trig=  2.13504e-09
tplh                =  2.63757e-10 targ=  2.26689e-08 trig=  2.24051e-08
i_vdd_avg           =  -1.94071e-06 from=  5.00000e-09 to=  1.10001e-07
power_avg_uw        =  3.78698e+00


Total analysis time (seconds) = 0.295463

Total elapsed time (seconds) = 0.365 

Total DRAM available = 16384.000 MB.
DRAM currently available =  237.297 MB.
Maximum ngspice program size =   12.594 MB.
Current ngspice program size =   11.969 MB.

