
Note: No compatibility mode selected!


Circuit: INV seed characterization sample 4314021

Doing analysis at TEMP = 55.499400 and TNOM = 27.000000

Using SPARSE 1.3 as Direct Linear Solver

Initial Transient Solution
--------------------------

Node                                   Voltage
----                                   -------
vdd                                    1.67875
in                                           0
out                                    1.67875
vin#branch                                   0
vdd#branch                        -1.76881e-12

 Reference value :  7.22159e-08
No. of Data Rows : 60044

  Measurements for Transient Analysis

tphl                =  6.03394e-10 targ=  2.67163e-09 trig=  2.06823e-09
tplh                =  9.33477e-10 targ=  2.31382e-08 trig=  2.22047e-08
i_vdd_avg           =  -2.17214e-06 from=  5.00000e-09 to=  1.10002e-07
power_avg_uw        =  3.64648e+00


Total analysis time (seconds) = 0.29723

Total elapsed time (seconds) = 0.369 

Total DRAM available = 16384.000 MB.
DRAM currently available =   64.594 MB.
Maximum ngspice program size =   13.281 MB.
Current ngspice program size =   13.281 MB.

