
Note: No compatibility mode selected!


Circuit: NOR2 seed characterization sample 4314039

Doing analysis at TEMP = 32.831200 and TNOM = 27.000000

Using SPARSE 1.3 as Direct Linear Solver

Initial Transient Solution
--------------------------

Node                                   Voltage
----                                   -------
vdd                                    1.93424
in                                           0
out                                    1.93424
pmid                                   1.93424
vin#branch                                   0
vdd#branch                        -3.94926e-12

 Reference value :  4.59914e-08
 Reference value :  1.05724e-07
No. of Data Rows : 60044

  Measurements for Transient Analysis

tphl                =  2.81988e-10 targ=  2.38621e-09 trig=  2.10423e-09
tplh                =  1.28607e-09 targ=  2.35987e-08 trig=  2.23127e-08
i_vdd_avg           =  -5.92893e-06 from=  5.00000e-09 to=  1.10002e-07
power_avg_uw        =  1.14680e+01


Total analysis time (seconds) = 0.481259

Total elapsed time (seconds) = 0.552 

Total DRAM available = 16384.000 MB.
DRAM currently available =  103.734 MB.
Maximum ngspice program size =   12.594 MB.
Current ngspice program size =   11.625 MB.

