
Note: No compatibility mode selected!


Circuit: NAND2 seed characterization sample 4314018

Doing analysis at TEMP = 22.921700 and TNOM = 27.000000

Using SPARSE 1.3 as Direct Linear Solver

Initial Transient Solution
--------------------------

Node                                   Voltage
----                                   -------
vdd                                    1.69928
in                                           0
out                                    1.69928
nmid                                0.00201151
vin#branch                                   0
vdd#branch                        -1.71489e-12

 Reference value :  4.76328e-08
 Reference value :  1.08793e-07
No. of Data Rows : 60044

  Measurements for Transient Analysis

tphl                =  5.01776e-10 targ=  2.65968e-09 trig=  2.15791e-09
tplh                =  2.33970e-10 targ=  2.27077e-08 trig=  2.24737e-08
i_vdd_avg           =  -1.00354e-06 from=  5.00000e-09 to=  1.10001e-07
power_avg_uw        =  1.70529e+00


Total analysis time (seconds) = 0.471085

Total elapsed time (seconds) = 0.540 

Total DRAM available = 16384.000 MB.
DRAM currently available =   95.594 MB.
Maximum ngspice program size =   12.594 MB.
Current ngspice program size =   11.719 MB.

