
Note: No compatibility mode selected!


Circuit: NOR2 seed characterization sample 4314043

Doing analysis at TEMP = 80.769500 and TNOM = 27.000000

Using SPARSE 1.3 as Direct Linear Solver

Initial Transient Solution
--------------------------

Node                                   Voltage
----                                   -------
vdd                                    1.85113
in                                           0
out                                    1.85113
pmid                                   1.85113
vin#branch                                   0
vdd#branch                        -7.75397e-12

 Reference value :  4.56105e-08
 Reference value :  1.05442e-07
No. of Data Rows : 60044

  Measurements for Transient Analysis

tphl                =  1.64917e-10 targ=  2.41167e-09 trig=  2.24676e-09
tplh                =  5.13254e-10 targ=  2.32535e-08 trig=  2.27403e-08
i_vdd_avg           =  -2.34858e-06 from=  5.00000e-09 to=  1.10000e-07
power_avg_uw        =  4.34753e+00


Total analysis time (seconds) = 0.480727

Total elapsed time (seconds) = 0.554 

Total DRAM available = 16384.000 MB.
DRAM currently available =  102.484 MB.
Maximum ngspice program size =   12.906 MB.
Current ngspice program size =   12.906 MB.

