
Note: No compatibility mode selected!


Circuit: NAND2 seed characterization sample 4314010

Doing analysis at TEMP = -6.148290 and TNOM = 27.000000

Using SPARSE 1.3 as Direct Linear Solver

Initial Transient Solution
--------------------------

Node                                   Voltage
----                                   -------
vdd                                    1.80524
in                                           0
out                                    1.80524
nmid                               0.000778855
vin#branch                                   0
vdd#branch                        -1.81747e-12

 Reference value :  4.76474e-08
 Reference value :  1.09798e-07
No. of Data Rows : 60044

  Measurements for Transient Analysis

tphl                =  3.02598e-10 targ=  2.51481e-09 trig=  2.21221e-09
tplh                =  2.10379e-10 targ=  2.28470e-08 trig=  2.26366e-08
i_vdd_avg           =  -3.38813e-06 from=  5.00000e-09 to=  1.10002e-07
power_avg_uw        =  6.11639e+00


Total analysis time (seconds) = 0.465921

Total elapsed time (seconds) = 0.534 

Total DRAM available = 16384.000 MB.
DRAM currently available =   90.484 MB.
Maximum ngspice program size =   12.562 MB.
Current ngspice program size =   11.594 MB.

