
Note: No compatibility mode selected!


Circuit: XOR2 seed characterization sample 4314048

Doing analysis at TEMP = 8.949860 and TNOM = 27.000000

Using SPARSE 1.3 as Direct Linear Solver

Initial Transient Solution
--------------------------

Node                                   Voltage
----                                   -------
vdd                                    1.82223
in                                           0
b                                      1.82223
abar                                   1.82223
bbar                               1.18036e-09
out                                    1.82223
vb#branch                                    0
vin#branch                         1.84665e-12
vdd#branch                         -1.1019e-11

 Reference value :  2.46561e-08
 Reference value :  5.92625e-08
 Reference value :  9.59945e-08
No. of Data Rows : 60044

  Measurements for Transient Analysis

tphl                =  3.02882e-10 targ=  2.40665e-09 trig=  2.10377e-09
tplh                =  3.50566e-10 targ=  2.26619e-08 trig=  2.23113e-08
i_vdd_avg           =  -5.52957e-06 from=  5.00000e-09 to=  1.10000e-07
power_avg_uw        =  1.00761e+01


Total analysis time (seconds) = 0.806819

Total elapsed time (seconds) = 0.889 

Total DRAM available = 16384.000 MB.
DRAM currently available =  105.312 MB.
Maximum ngspice program size =   13.469 MB.
Current ngspice program size =   12.203 MB.

