
Note: No compatibility mode selected!


Circuit: XOR2 seed characterization sample 4314012

Doing analysis at TEMP = -5.487980 and TNOM = 27.000000

Using SPARSE 1.3 as Direct Linear Solver

Initial Transient Solution
--------------------------

Node                                   Voltage
----                                   -------
vdd                                    1.93518
in                                           0
b                                      1.93518
abar                                   1.93518
bbar                               2.37103e-09
out                                    1.93518
vb#branch                                    0
vin#branch                         1.94666e-12
vdd#branch                        -1.16737e-11

 Reference value :  2.69217e-08
 Reference value :  6.21423e-08
 Reference value :  9.95803e-08
No. of Data Rows : 60047

  Measurements for Transient Analysis

tphl                =  5.43931e-10 targ=  2.63660e-09 trig=  2.09267e-09
tplh                =  9.01809e-10 targ=  2.31798e-08 trig=  2.22780e-08
i_vdd_avg           =  -6.52288e-06 from=  5.00000e-09 to=  1.10002e-07
power_avg_uw        =  1.26230e+01


Total analysis time (seconds) = 0.794774

Total elapsed time (seconds) = 0.864 

Total DRAM available = 16384.000 MB.
DRAM currently available =  109.078 MB.
Maximum ngspice program size =   12.578 MB.
Current ngspice program size =   11.969 MB.

