
Note: No compatibility mode selected!


Circuit: NAND2 seed characterization sample 4314026

Doing analysis at TEMP = 13.365000 and TNOM = 27.000000

Using SPARSE 1.3 as Direct Linear Solver

Initial Transient Solution
--------------------------

Node                                   Voltage
----                                   -------
vdd                                    1.93533
in                                           0
out                                    1.93533
nmid                                0.00606124
vin#branch                                   0
vdd#branch                        -1.96248e-12

 Reference value :  4.58173e-08
 Reference value :  1.06488e-07
No. of Data Rows : 60044

  Measurements for Transient Analysis

tphl                =  3.37185e-10 targ=  2.43234e-09 trig=  2.09516e-09
tplh                =  1.61563e-10 targ=  2.24470e-08 trig=  2.22855e-08
i_vdd_avg           =  -6.82713e-06 from=  5.00000e-09 to=  1.10002e-07
power_avg_uw        =  1.32128e+01


Total analysis time (seconds) = 0.47649

Total elapsed time (seconds) = 0.548 

Total DRAM available = 16384.000 MB.
DRAM currently available =   71.188 MB.
Maximum ngspice program size =   12.562 MB.
Current ngspice program size =   12.031 MB.

