
Note: No compatibility mode selected!


Circuit: INV seed characterization sample 4314013

Doing analysis at TEMP = 99.228500 and TNOM = 27.000000

Using SPARSE 1.3 as Direct Linear Solver

Initial Transient Solution
--------------------------

Node                                   Voltage
----                                   -------
vdd                                     1.8339
in                                           0
out                                     1.8339
vin#branch                                   0
vdd#branch                        -1.29965e-11

 Reference value :  7.58999e-08
No. of Data Rows : 60047

  Measurements for Transient Analysis

tphl                =  1.93574e-10 targ=  2.23530e-09 trig=  2.04173e-09
tplh                =  3.24231e-10 targ=  2.24494e-08 trig=  2.21252e-08
i_vdd_avg           =  -5.40604e-06 from=  5.00000e-09 to=  1.10002e-07
power_avg_uw        =  9.91414e+00


Total analysis time (seconds) = 0.28683

Total elapsed time (seconds) = 0.354 

Total DRAM available = 16384.000 MB.
DRAM currently available =   80.734 MB.
Maximum ngspice program size =   12.562 MB.
Current ngspice program size =   11.906 MB.

