
Note: No compatibility mode selected!


Circuit: XOR2 seed characterization sample 4314028

Doing analysis at TEMP = 48.173700 and TNOM = 27.000000

Using SPARSE 1.3 as Direct Linear Solver

Initial Transient Solution
--------------------------

Node                                   Voltage
----                                   -------
vdd                                    1.63536
in                                           0
b                                      1.63536
abar                                   1.63536
bbar                               1.29925e-09
out                                    1.63536
vb#branch                                    0
vin#branch                         2.06778e-12
vdd#branch                        -1.06245e-11

 Reference value :  2.62432e-08
 Reference value :  6.10441e-08
 Reference value :  9.78121e-08
No. of Data Rows : 60047

  Measurements for Transient Analysis

tphl                =  3.65206e-10 targ=  2.49476e-09 trig=  2.12955e-09
tplh                =  4.56799e-10 targ=  2.28455e-08 trig=  2.23887e-08
i_vdd_avg           =  -4.86288e-06 from=  5.00000e-09 to=  1.10001e-07
power_avg_uw        =  7.95256e+00


Total analysis time (seconds) = 0.806344

Total elapsed time (seconds) = 0.880 

Total DRAM available = 16384.000 MB.
DRAM currently available =   90.141 MB.
Maximum ngspice program size =   12.578 MB.
Current ngspice program size =   12.297 MB.

