
Note: No compatibility mode selected!


Circuit: NAND2 seed characterization sample 4314034

Doing analysis at TEMP = 7.831040 and TNOM = 27.000000

Using SPARSE 1.3 as Direct Linear Solver

Initial Transient Solution
--------------------------

Node                                   Voltage
----                                   -------
vdd                                    1.71138
in                                           0
out                                    1.71138
nmid                                0.00238286
vin#branch                                   0
vdd#branch                        -1.72812e-12

 Reference value :  4.68619e-08
 Reference value :  1.07663e-07
No. of Data Rows : 60041

  Measurements for Transient Analysis

tphl                =  4.19107e-10 targ=  2.64456e-09 trig=  2.22546e-09
tplh                =  2.32140e-10 targ=  2.29085e-08 trig=  2.26764e-08
i_vdd_avg           =  -3.70519e-06 from=  5.00000e-09 to=  1.10001e-07
power_avg_uw        =  6.34099e+00


Total analysis time (seconds) = 0.473048

Total elapsed time (seconds) = 0.544 

Total DRAM available = 16384.000 MB.
DRAM currently available =  104.172 MB.
Maximum ngspice program size =   12.562 MB.
Current ngspice program size =   12.156 MB.

