
Note: No compatibility mode selected!


Circuit: NAND2 seed characterization sample 4314014

Doing analysis at TEMP = 76.826500 and TNOM = 27.000000

Using SPARSE 1.3 as Direct Linear Solver

Initial Transient Solution
--------------------------

Node                                   Voltage
----                                   -------
vdd                                    1.87509
in                                           0
out                                    1.87509
nmid                                  0.044045
vin#branch                                   0
vdd#branch                        -2.32128e-12

 Reference value :  4.78318e-08
 Reference value :  1.09497e-07
No. of Data Rows : 60050

  Measurements for Transient Analysis

tphl                =  2.28647e-10 targ=  2.23436e-09 trig=  2.00571e-09
tplh                =  9.63537e-11 targ=  2.21135e-08 trig=  2.20171e-08
i_vdd_avg           =  -2.56276e-06 from=  5.00000e-09 to=  1.10001e-07
power_avg_uw        =  4.80541e+00


Total analysis time (seconds) = 0.467507

Total elapsed time (seconds) = 0.536 

Total DRAM available = 16384.000 MB.
DRAM currently available =   90.469 MB.
Maximum ngspice program size =   12.562 MB.
Current ngspice program size =   11.812 MB.

