
Note: No compatibility mode selected!


Circuit: NOR2 seed characterization sample 4314047

Doing analysis at TEMP = -8.094720 and TNOM = 27.000000

Using SPARSE 1.3 as Direct Linear Solver

Initial Transient Solution
--------------------------

Node                                   Voltage
----                                   -------
vdd                                    1.90147
in                                           0
out                                    1.90147
pmid                                   1.90147
vin#branch                                   0
vdd#branch                        -3.82364e-12

 Reference value :  4.50611e-08
 Reference value :  1.05105e-07
No. of Data Rows : 60044

  Measurements for Transient Analysis

tphl                =  1.02075e-10 targ=  2.17615e-09 trig=  2.07407e-09
tplh                =  4.40071e-10 targ=  2.26623e-08 trig=  2.22222e-08
i_vdd_avg           =  -1.00505e-06 from=  5.00000e-09 to=  1.10001e-07
power_avg_uw        =  1.91107e+00


Total analysis time (seconds) = 0.481753

Total elapsed time (seconds) = 0.554 

Total DRAM available = 16384.000 MB.
DRAM currently available =   95.500 MB.
Maximum ngspice program size =   12.562 MB.
Current ngspice program size =   11.625 MB.

