
Note: No compatibility mode selected!


Circuit: XOR2 seed characterization sample 4314044

Doing analysis at TEMP = 36.519500 and TNOM = 27.000000

Using SPARSE 1.3 as Direct Linear Solver

Initial Transient Solution
--------------------------

Node                                   Voltage
----                                   -------
vdd                                    1.90498
in                                           0
b                                      1.90498
abar                                   1.90498
bbar                                1.3336e-09
out                                    1.90498
vb#branch                                    0
vin#branch                         2.09521e-12
vdd#branch                        -1.18104e-11

 Reference value :  2.57956e-08
 Reference value :  6.04153e-08
 Reference value :  9.73033e-08
No. of Data Rows : 60044

  Measurements for Transient Analysis

tphl                =  2.30727e-10 targ=  2.42988e-09 trig=  2.19915e-09
tplh                =  3.05346e-10 targ=  2.29028e-08 trig=  2.25974e-08
i_vdd_avg           =  -2.99467e-06 from=  5.00000e-09 to=  1.10002e-07
power_avg_uw        =  5.70478e+00


Total analysis time (seconds) = 0.807855

Total elapsed time (seconds) = 0.883 

Total DRAM available = 16384.000 MB.
DRAM currently available =  112.281 MB.
Maximum ngspice program size =   12.562 MB.
Current ngspice program size =   11.781 MB.

