
Note: No compatibility mode selected!


Circuit: NOR2 seed characterization sample 4314019

Doing analysis at TEMP = 86.360600 and TNOM = 27.000000

Using SPARSE 1.3 as Direct Linear Solver

Initial Transient Solution
--------------------------

Node                                   Voltage
----                                   -------
vdd                                    1.96836
in                                           0
out                                    1.96836
pmid                                   1.96836
vin#branch                                   0
vdd#branch                        -1.34412e-11

 Reference value :  4.64054e-08
 Reference value :  1.07088e-07
No. of Data Rows : 60044

  Measurements for Transient Analysis

tphl                =  1.49037e-10 targ=  2.27222e-09 trig=  2.12318e-09
tplh                =  4.92228e-10 targ=  2.28618e-08 trig=  2.23696e-08
i_vdd_avg           =  -5.78657e-06 from=  5.00000e-09 to=  1.10002e-07
power_avg_uw        =  1.13900e+01


Total analysis time (seconds) = 0.47639

Total elapsed time (seconds) = 0.546 

Total DRAM available = 16384.000 MB.
DRAM currently available =   98.734 MB.
Maximum ngspice program size =   12.562 MB.
Current ngspice program size =   11.625 MB.

