
Note: Compatibility modes selected: hs a


Circuit: SKY130 library cell inv_4 A_to_Y

option SCALE: Scale is set to 1e-06 for instance and model parameters
Doing analysis at TEMP = 9.735342 and TNOM = 27.000000

Using KLU as Direct Linear Solver
 Reference value :  3.50492e-08
 Reference value :  1.20466e-07
 Reference value :  2.07284e-07
 Reference value :  2.91031e-07
No. of Data Rows : 68030

  Measurements for Transient Analysis

tphl                =  -1.85878e-10 targ=  2.54625e-08 trig=  2.56484e-08
tplh                =  3.87622e-10 targ=  9.93327e-08 trig=  9.89451e-08
i_vdd_avg           =  -3.85007e-07 from=  1.00000e-08 to=  3.30001e-07
power_avg_uw        =  6.66391e-01


Total analysis time (seconds) = 1.04067

Total elapsed time (seconds) = 1.194 

Total DRAM available = 16384.000 MB.
DRAM currently available =   86.891 MB.
Maximum ngspice program size =   25.938 MB.
Current ngspice program size =   25.938 MB.

