
Note: Compatibility modes selected: hs a


Circuit: SKY130 library cell nor2_4 A_to_Y__B=0

option SCALE: Scale is set to 1e-06 for instance and model parameters
Doing analysis at TEMP = 120.555550 and TNOM = 27.000000

Using KLU as Direct Linear Solver
 Reference value :  1.21514e-08
 Reference value :  5.91421e-08
 Reference value :  1.07732e-07
 Reference value :  1.52712e-07
 Reference value :  1.98277e-07
 Reference value :  2.42587e-07
 Reference value :  2.87992e-07
 Reference value :  3.32072e-07
No. of Data Rows : 68032

  Measurements for Transient Analysis

tphl                =  -9.50676e-11 targ=  2.95872e-08 trig=  2.96823e-08
tplh                =  1.82260e-09 targ=  1.12869e-07 trig=  1.11047e-07
i_vdd_avg           =  -5.74542e-06 from=  1.00000e-08 to=  3.30002e-07
power_avg_uw        =  1.08953e+01


Total analysis time (seconds) = 1.91656

Total elapsed time (seconds) = 2.075 

Total DRAM available = 16384.000 MB.
DRAM currently available =  154.297 MB.
Maximum ngspice program size =   26.172 MB.
Current ngspice program size =   26.172 MB.

