
Note: Compatibility modes selected: hs a


Circuit: SKY130 library cell aoi21_4 A1_to_Y__A2=1,B1=0

option SCALE: Scale is set to 1e-06 for instance and model parameters
Doing analysis at TEMP = -26.873760 and TNOM = 27.000000

Using KLU as Direct Linear Solver
 Reference value :  9.02640e-09
 Reference value :  4.01104e-08
 Reference value :  7.01954e-08
 Reference value :  1.01330e-07
 Reference value :  1.33258e-07
 Reference value :  1.64238e-07
 Reference value :  1.93968e-07
 Reference value :  2.24065e-07
 Reference value :  2.52160e-07
 Reference value :  2.82453e-07
 Reference value :  3.14303e-07
No. of Data Rows : 68034

  Measurements for Transient Analysis

tphl                =  -4.32599e-10 targ=  2.92863e-08 trig=  2.97189e-08
tplh                =  1.99433e-09 targ=  1.13151e-07 trig=  1.11157e-07
i_vdd_avg           =  -2.57622e-06 from=  1.00000e-08 to=  3.30003e-07
power_avg_uw        =  5.04100e+00


Total analysis time (seconds) = 2.84228

Total elapsed time (seconds) = 3.014 

Total DRAM available = 16384.000 MB.
DRAM currently available =  176.844 MB.
Maximum ngspice program size =   27.562 MB.
Current ngspice program size =   27.562 MB.

