
Note: Compatibility modes selected: hs a


Circuit: SKY130 library cell nand2_1 A_to_Y__B=1

option SCALE: Scale is set to 1e-06 for instance and model parameters
Doing analysis at TEMP = 97.984797 and TNOM = 27.000000

Using KLU as Direct Linear Solver
 Reference value :  5.87756e-08
 Reference value :  2.27786e-07
No. of Data Rows : 68034

  Measurements for Transient Analysis

tphl                =  1.43309e-09 targ=  2.71771e-08 trig=  2.57441e-08
tplh                =  1.94275e-09 targ=  1.01175e-07 trig=  9.92322e-08
i_vdd_avg           =  -1.95377e-06 from=  1.00000e-08 to=  3.30004e-07
power_avg_uw        =  3.16568e+00


Total analysis time (seconds) = 0.537906

Total elapsed time (seconds) = 0.703 

Total DRAM available = 16384.000 MB.
DRAM currently available =  157.953 MB.
Maximum ngspice program size =   25.453 MB.
Current ngspice program size =   25.453 MB.

