
Note: Compatibility modes selected: hs a


Circuit: SKY130 library cell inv_1 A_to_Y

option SCALE: Scale is set to 1e-06 for instance and model parameters
Doing analysis at TEMP = 99.340867 and TNOM = 27.000000

Using KLU as Direct Linear Solver
 Reference value :  8.04492e-08
 Reference value :  3.19571e-07
No. of Data Rows : 68030

  Measurements for Transient Analysis

tphl                =  2.36887e-10 targ=  2.62827e-08 trig=  2.60458e-08
tplh                =  9.15049e-10 targ=  1.01053e-07 trig=  1.00137e-07
i_vdd_avg           =  -9.57767e-07 from=  1.00000e-08 to=  3.30001e-07
power_avg_uw        =  1.87251e+00


Total analysis time (seconds) = 0.411595

Total elapsed time (seconds) = 0.567 

Total DRAM available = 16384.000 MB.
DRAM currently available =  157.422 MB.
Maximum ngspice program size =   25.906 MB.
Current ngspice program size =   25.906 MB.

