
Note: Compatibility modes selected: hs a


Circuit: SKY130 library cell xor2_4 A_to_X__B=0

option SCALE: Scale is set to 1e-06 for instance and model parameters
Doing analysis at TEMP = 27.945526 and TNOM = 27.000000

Using KLU as Direct Linear Solver
 Reference value :  4.44640e-09
 Reference value :  2.33064e-08
 Reference value :  4.02807e-08
 Reference value :  5.93857e-08
 Reference value :  7.81557e-08
 Reference value :  9.58407e-08
 Reference value :  1.15354e-07
 Reference value :  1.33589e-07
 Reference value :  1.52864e-07
 Reference value :  1.71734e-07
 Reference value :  1.89843e-07
 Reference value :  2.06051e-07
 Reference value :  2.23146e-07
 Reference value :  2.41311e-07
 Reference value :  2.58371e-07
 Reference value :  2.76109e-07
 Reference value :  2.93674e-07
 Reference value :  3.11959e-07
 Reference value :  3.31374e-07
No. of Data Rows : 68034

  Measurements for Transient Analysis

tplh                =  -1.86282e-10 targ=  2.82728e-08 trig=  2.84591e-08
tphl                =  1.16400e-09 targ=  1.08541e-07 trig=  1.07377e-07
i_vdd_avg           =  -3.59939e-06 from=  1.00000e-08 to=  3.30004e-07
power_avg_uw        =  6.71580e+00


Total analysis time (seconds) = 4.86553

Total elapsed time (seconds) = 5.056 

Total DRAM available = 16384.000 MB.
DRAM currently available =  133.266 MB.
Maximum ngspice program size =   30.406 MB.
Current ngspice program size =   30.406 MB.

