
Note: Compatibility modes selected: hs a


Circuit: SKY130 library cell oai21_4 A1_to_Y__A2=0,B1=1

option SCALE: Scale is set to 1e-06 for instance and model parameters
Doing analysis at TEMP = 33.829502 and TNOM = 27.000000

Using KLU as Direct Linear Solver
 Reference value :  1.11164e-08
 Reference value :  4.26730e-08
 Reference value :  7.38030e-08
 Reference value :  1.07723e-07
 Reference value :  1.35268e-07
 Reference value :  1.63133e-07
 Reference value :  1.95353e-07
 Reference value :  2.33178e-07
 Reference value :  2.73298e-07
 Reference value :  3.15348e-07
No. of Data Rows : 68032

  Measurements for Transient Analysis

tphl                =  2.25458e-11 targ=  2.83803e-08 trig=  2.83577e-08
tplh                =  1.60288e-09 targ=  1.08676e-07 trig=  1.07073e-07
i_vdd_avg           =  -1.42163e-06 from=  1.00000e-08 to=  3.30003e-07
power_avg_uw        =  2.42201e+00


Total analysis time (seconds) = 2.76777

Total elapsed time (seconds) = 2.919 

Total DRAM available = 16384.000 MB.
DRAM currently available =  130.406 MB.
Maximum ngspice program size =   25.594 MB.
Current ngspice program size =   10.016 MB.

