
Note: Compatibility modes selected: hs a


Circuit: SKY130 library cell nor2_4 A_to_Y__B=0

option SCALE: Scale is set to 1e-06 for instance and model parameters
Doing analysis at TEMP = 90.049113 and TNOM = 27.000000

Using KLU as Direct Linear Solver
 Reference value :  1.83064e-08
 Reference value :  5.86223e-08
 Reference value :  1.04492e-07
 Reference value :  1.50847e-07
 Reference value :  1.94117e-07
 Reference value :  2.36697e-07
 Reference value :  2.80267e-07
 Reference value :  3.26182e-07
No. of Data Rows : 68032

  Measurements for Transient Analysis

tphl                =  -2.94218e-10 targ=  2.65932e-08 trig=  2.68874e-08
tplh                =  6.01796e-10 targ=  1.03264e-07 trig=  1.02662e-07
i_vdd_avg           =  -1.34548e-06 from=  1.00000e-08 to=  3.30002e-07
power_avg_uw        =  2.39008e+00


Total analysis time (seconds) = 2.03591

Total elapsed time (seconds) = 2.180 

Total DRAM available = 16384.000 MB.
DRAM currently available =  131.281 MB.
Maximum ngspice program size =   26.375 MB.
Current ngspice program size =   26.375 MB.

