
Note: Compatibility modes selected: hs a


Circuit: SKY130 library cell mux2_4 A0_to_X__A1=0,S=0

option SCALE: Scale is set to 1e-06 for instance and model parameters
Doing analysis at TEMP = -11.261906 and TNOM = 27.000000

Using KLU as Direct Linear Solver
 Reference value :  1.36064e-08
 Reference value :  5.29646e-08
 Reference value :  9.23846e-08
 Reference value :  1.29492e-07
 Reference value :  1.69662e-07
 Reference value :  2.05380e-07
 Reference value :  2.40065e-07
 Reference value :  2.77232e-07
 Reference value :  3.14227e-07
No. of Data Rows : 68030

  Measurements for Transient Analysis

tplh                =  1.25718e-10 targ=  2.67693e-08 trig=  2.66436e-08
tphl                =  1.06656e-09 targ=  1.02997e-07 trig=  1.01931e-07
i_vdd_avg           =  -2.11924e-06 from=  1.00000e-08 to=  3.30002e-07
power_avg_uw        =  3.97122e+00


Total analysis time (seconds) = 2.39347

Total elapsed time (seconds) = 2.552 

Total DRAM available = 16384.000 MB.
DRAM currently available =   84.234 MB.
Maximum ngspice program size =   25.953 MB.
Current ngspice program size =   25.953 MB.

