
Note: Compatibility modes selected: hs a


Circuit: SKY130 library cell nor2_1 A_to_Y__B=0

option SCALE: Scale is set to 1e-06 for instance and model parameters
Doing analysis at TEMP = 114.326170 and TNOM = 27.000000

Using KLU as Direct Linear Solver
 Reference value :  5.91505e-08
 Reference value :  2.07695e-07
No. of Data Rows : 68034

  Measurements for Transient Analysis

tphl                =  8.43433e-10 targ=  2.68224e-08 trig=  2.59790e-08
tplh                =  2.04107e-09 targ=  1.01978e-07 trig=  9.99370e-08
i_vdd_avg           =  -1.60703e-06 from=  1.00000e-08 to=  3.30003e-07
power_avg_uw        =  2.81655e+00


Total analysis time (seconds) = 0.577966

Total elapsed time (seconds) = 0.738 

Total DRAM available = 16384.000 MB.
DRAM currently available =  120.781 MB.
Maximum ngspice program size =   27.344 MB.
Current ngspice program size =   27.344 MB.

