
Note: Compatibility modes selected: hs a


Circuit: SKY130 library cell mux2_4 A0_to_X__A1=0,S=0

option SCALE: Scale is set to 1e-06 for instance and model parameters
Doing analysis at TEMP = 49.438443 and TNOM = 27.000000

Using KLU as Direct Linear Solver
 Reference value :  1.60864e-08
 Reference value :  5.48581e-08
 Reference value :  9.31581e-08
 Reference value :  1.31264e-07
 Reference value :  1.67224e-07
 Reference value :  2.06513e-07
 Reference value :  2.44813e-07
 Reference value :  2.84949e-07
 Reference value :  3.23899e-07
No. of Data Rows : 68032

  Measurements for Transient Analysis

tplh                =  3.26747e-10 targ=  2.59046e-08 trig=  2.55778e-08
tphl                =  8.04323e-10 targ=  9.95378e-08 trig=  9.87335e-08
i_vdd_avg           =  -1.09062e-06 from=  1.00000e-08 to=  3.30004e-07
power_avg_uw        =  1.77603e+00


Total analysis time (seconds) = 2.30469

Total elapsed time (seconds) = 2.463 

Total DRAM available = 16384.000 MB.
DRAM currently available =  120.781 MB.
Maximum ngspice program size =   25.625 MB.
Current ngspice program size =   25.625 MB.

