
Note: Compatibility modes selected: hs a


Circuit: SKY130 library cell aoi21_4 A1_to_Y__A2=1,B1=0

option SCALE: Scale is set to 1e-06 for instance and model parameters
Doing analysis at TEMP = 116.883980 and TNOM = 27.000000

Using KLU as Direct Linear Solver
 Reference value :  1.05464e-08
 Reference value :  4.01938e-08
 Reference value :  7.01638e-08
 Reference value :  9.99088e-08
 Reference value :  1.28580e-07
 Reference value :  1.59540e-07
 Reference value :  1.89743e-07
 Reference value :  2.18654e-07
 Reference value :  2.49134e-07
 Reference value :  2.79145e-07
 Reference value :  3.08510e-07
 Reference value :  3.38780e-07
No. of Data Rows : 68030

  Measurements for Transient Analysis

tphl                =  2.50771e-11 targ=  2.69707e-08 trig=  2.69456e-08
tplh                =  8.17802e-10 targ=  1.03655e-07 trig=  1.02837e-07
i_vdd_avg           =  -2.75663e-06 from=  1.00000e-08 to=  3.30000e-07
power_avg_uw        =  5.29187e+00


Total analysis time (seconds) = 3.02792

Total elapsed time (seconds) = 3.180 

Total DRAM available = 16384.000 MB.
DRAM currently available =  184.766 MB.
Maximum ngspice program size =   26.750 MB.
Current ngspice program size =   26.750 MB.

