
Note: Compatibility modes selected: hs a


Circuit: SKY130 library cell inv_1 A_to_Y

option SCALE: Scale is set to 1e-06 for instance and model parameters
Doing analysis at TEMP = -31.882104 and TNOM = 27.000000

Using KLU as Direct Linear Solver
 Reference value :  1.06615e-07
No. of Data Rows : 68034

  Measurements for Transient Analysis

tphl                =  8.71982e-10 targ=  2.65712e-08 trig=  2.56993e-08
tplh                =  1.95930e-09 targ=  1.01057e-07 trig=  9.90978e-08
i_vdd_avg           =  -2.30842e-06 from=  1.00000e-08 to=  3.30005e-07
power_avg_uw        =  4.30287e+00


Total analysis time (seconds) = 0.322945

Total elapsed time (seconds) = 0.494 

Total DRAM available = 16384.000 MB.
DRAM currently available =  157.953 MB.
Maximum ngspice program size =   25.875 MB.
Current ngspice program size =   25.875 MB.

