
Note: Compatibility modes selected: hs a


Circuit: SKY130 library cell xor2_1 A_to_X__B=0

option SCALE: Scale is set to 1e-06 for instance and model parameters
Doing analysis at TEMP = -29.016334 and TNOM = 27.000000

Using KLU as Direct Linear Solver
 Reference value :  2.57825e-08
 Reference value :  9.85908e-08
 Reference value :  1.66326e-07
 Reference value :  2.30099e-07
 Reference value :  3.00231e-07
No. of Data Rows : 68030

  Measurements for Transient Analysis

tplh                =  1.57039e-09 targ=  2.65037e-08 trig=  2.49333e-08
tphl                =  6.89492e-10 targ=  9.74894e-08 trig=  9.67999e-08
i_vdd_avg           =  -1.93537e-06 from=  1.00000e-08 to=  3.30001e-07
power_avg_uw        =  3.61601e+00


Total analysis time (seconds) = 1.2967

Total elapsed time (seconds) = 1.442 

Total DRAM available = 16384.000 MB.
DRAM currently available =  111.125 MB.
Maximum ngspice program size =   27.094 MB.
Current ngspice program size =   27.094 MB.

