
Note: Compatibility modes selected: hs a


Circuit: SKY130 library cell inv_1 A_to_Y

option SCALE: Scale is set to 1e-06 for instance and model parameters
Doing analysis at TEMP = 18.696073 and TNOM = 27.000000

Using KLU as Direct Linear Solver
 Reference value :  9.12142e-08
No. of Data Rows : 68030

  Measurements for Transient Analysis

tphl                =  -4.77503e-10 targ=  2.78183e-08 trig=  2.82959e-08
tplh                =  1.01853e-09 targ=  1.07906e-07 trig=  1.06888e-07
i_vdd_avg           =  -3.57587e-07 from=  1.00000e-08 to=  3.30001e-07
power_avg_uw        =  6.37328e-01


Total analysis time (seconds) = 0.360169

Total elapsed time (seconds) = 0.502 

Total DRAM available = 16384.000 MB.
DRAM currently available =  111.125 MB.
Maximum ngspice program size =   25.828 MB.
Current ngspice program size =   25.828 MB.

