
Note: Compatibility modes selected: hs a


Circuit: SKY130 library cell mux2_1 A0_to_X__A1=0,S=0

option SCALE: Scale is set to 1e-06 for instance and model parameters
Doing analysis at TEMP = 97.837202 and TNOM = 27.000000

Using KLU as Direct Linear Solver
 Reference value :  2.26664e-08
 Reference value :  7.99506e-08
 Reference value :  1.38749e-07
 Reference value :  1.95476e-07
 Reference value :  2.54631e-07
 Reference value :  3.08004e-07
No. of Data Rows : 68034

  Measurements for Transient Analysis

tplh                =  6.91531e-10 targ=  2.60881e-08 trig=  2.53965e-08
tphl                =  9.09758e-10 targ=  9.90994e-08 trig=  9.81896e-08
i_vdd_avg           =  -2.20242e-06 from=  1.00000e-08 to=  3.30004e-07
power_avg_uw        =  4.33532e+00


Total analysis time (seconds) = 1.54851

Total elapsed time (seconds) = 1.691 

Total DRAM available = 16384.000 MB.
DRAM currently available =  182.250 MB.
Maximum ngspice program size =   27.141 MB.
Current ngspice program size =   27.141 MB.

