
Note: Compatibility modes selected: hs a


Circuit: SKY130 library cell oai21_4 A1_to_Y__A2=0,B1=1

option SCALE: Scale is set to 1e-06 for instance and model parameters
Doing analysis at TEMP = 67.055896 and TNOM = 27.000000

Using KLU as Direct Linear Solver
 Reference value :  1.03314e-08
 Reference value :  4.03741e-08
 Reference value :  7.32341e-08
 Reference value :  1.04306e-07
 Reference value :  1.33801e-07
 Reference value :  1.67731e-07
 Reference value :  2.01739e-07
 Reference value :  2.30274e-07
 Reference value :  2.61081e-07
 Reference value :  2.91441e-07
 Reference value :  3.23111e-07
No. of Data Rows : 68030

  Measurements for Transient Analysis

tphl                =  -2.52670e-11 targ=  2.47681e-08 trig=  2.47933e-08
tplh                =  2.53445e-10 targ=  9.66334e-08 trig=  9.63800e-08
i_vdd_avg           =  -6.29481e-07 from=  1.00000e-08 to=  3.30001e-07
power_avg_uw        =  1.22936e+00


Total analysis time (seconds) = 2.78227

Total elapsed time (seconds) = 2.943 

Total DRAM available = 16384.000 MB.
DRAM currently available =  182.250 MB.
Maximum ngspice program size =   27.250 MB.
Current ngspice program size =   27.250 MB.

