
Note: Compatibility modes selected: hs a


Circuit: SKY130 library cell inv_4 A_to_Y

option SCALE: Scale is set to 1e-06 for instance and model parameters
Doing analysis at TEMP = 89.871933 and TNOM = 27.000000

Using KLU as Direct Linear Solver
 Reference value :  2.98225e-08
 Reference value :  1.16868e-07
 Reference value :  2.01845e-07
 Reference value :  2.85953e-07
No. of Data Rows : 68034

  Measurements for Transient Analysis

tphl                =  -2.21222e-10 targ=  2.81151e-08 trig=  2.83364e-08
tplh                =  1.16965e-09 targ=  1.08179e-07 trig=  1.07009e-07
i_vdd_avg           =  -5.09975e-06 from=  1.00000e-08 to=  3.30003e-07
power_avg_uw        =  1.00788e+01


Total analysis time (seconds) = 1.03334

Total elapsed time (seconds) = 1.189 

Total DRAM available = 16384.000 MB.
DRAM currently available =  135.984 MB.
Maximum ngspice program size =   27.344 MB.
Current ngspice program size =   27.344 MB.

