
Note: Compatibility modes selected: hs a


Circuit: SKY130 library cell mux2_4 A0_to_X__A1=0,S=0

option SCALE: Scale is set to 1e-06 for instance and model parameters
Doing analysis at TEMP = 83.316196 and TNOM = 27.000000

Using KLU as Direct Linear Solver
 Reference value :  1.40814e-08
 Reference value :  5.45750e-08
 Reference value :  9.55600e-08
 Reference value :  1.33367e-07
 Reference value :  1.72017e-07
 Reference value :  2.08145e-07
 Reference value :  2.48525e-07
 Reference value :  2.88757e-07
 Reference value :  3.22072e-07
No. of Data Rows : 68030

  Measurements for Transient Analysis

tplh                =  -9.69338e-11 targ=  2.92443e-08 trig=  2.93412e-08
tphl                =  1.46570e-09 targ=  1.11489e-07 trig=  1.10024e-07
i_vdd_avg           =  -2.16922e-06 from=  1.00000e-08 to=  3.30002e-07
power_avg_uw        =  3.93227e+00


Total analysis time (seconds) = 2.28901

Total elapsed time (seconds) = 2.473 

Total DRAM available = 16384.000 MB.
DRAM currently available =  305.984 MB.
Maximum ngspice program size =   25.531 MB.
Current ngspice program size =   25.531 MB.

