Note: Starting dynamic gmin stepping
Note: Dynamic gmin stepping completed

Note: Compatibility modes selected: hs a


Circuit: SKY130 library cell mux2_1 A0_to_X__A1=0,S=0

option SCALE: Scale is set to 1e-06 for instance and model parameters
Doing analysis at TEMP = 14.504406 and TNOM = 27.000000

Using KLU as Direct Linear Solver
 Reference value :  1.99664e-08
 Reference value :  7.51315e-08
 Reference value :  1.31330e-07
 Reference value :  1.88438e-07
 Reference value :  2.44491e-07
 Reference value :  3.03130e-07
No. of Data Rows : 68032

  Measurements for Transient Analysis

tplh                =  6.46517e-10 targ=  2.79885e-08 trig=  2.73420e-08
tphl                =  1.34863e-09 targ=  1.05375e-07 trig=  1.04026e-07
i_vdd_avg           =  -1.57057e-06 from=  1.00000e-08 to=  3.30000e-07
power_avg_uw        =  2.72730e+00


Total analysis time (seconds) = 1.58211

Total elapsed time (seconds) = 1.746 

Total DRAM available = 16384.000 MB.
DRAM currently available =  230.094 MB.
Maximum ngspice program size =   26.172 MB.
Current ngspice program size =   26.172 MB.

