
Note: Compatibility modes selected: hs a


Circuit: SKY130 library cell xor2_4 A_to_X__B=0

option SCALE: Scale is set to 1e-06 for instance and model parameters
Doing analysis at TEMP = 58.222607 and TNOM = 27.000000

Using KLU as Direct Linear Solver
 Reference value :  5.24640e-09
 Reference value :  2.41075e-08
 Reference value :  4.30424e-08
 Reference value :  6.16974e-08
 Reference value :  7.86874e-08
 Reference value :  9.63874e-08
 Reference value :  1.13377e-07
 Reference value :  1.32037e-07
 Reference value :  1.49457e-07
 Reference value :  1.66627e-07
 Reference value :  1.86333e-07
 Reference value :  2.04522e-07
 Reference value :  2.20212e-07
 Reference value :  2.38317e-07
 Reference value :  2.55222e-07
 Reference value :  2.73692e-07
 Reference value :  2.92322e-07
 Reference value :  3.10402e-07
 Reference value :  3.29097e-07
No. of Data Rows : 68032

  Measurements for Transient Analysis

tplh                =  4.50369e-10 targ=  2.63103e-08 trig=  2.58600e-08
tphl                =  6.59529e-10 targ=  1.00239e-07 trig=  9.95799e-08
i_vdd_avg           =  -2.32038e-06 from=  1.00000e-08 to=  3.30002e-07
power_avg_uw        =  3.82734e+00


Total analysis time (seconds) = 4.82452

Total elapsed time (seconds) = 4.992 

Total DRAM available = 16384.000 MB.
DRAM currently available =  111.125 MB.
Maximum ngspice program size =   27.625 MB.
Current ngspice program size =   27.625 MB.

