
Note: Compatibility modes selected: hs a


Circuit: SKY130 library cell xor2_4 A_to_X__B=0

option SCALE: Scale is set to 1e-06 for instance and model parameters
Doing analysis at TEMP = 97.642892 and TNOM = 27.000000

Using KLU as Direct Linear Solver
 Reference value :  5.14640e-09
 Reference value :  2.24414e-08
 Reference value :  4.06607e-08
 Reference value :  5.82257e-08
 Reference value :  7.58857e-08
 Reference value :  9.41307e-08
 Reference value :  1.12454e-07
 Reference value :  1.31234e-07
 Reference value :  1.50364e-07
 Reference value :  1.68689e-07
 Reference value :  1.87128e-07
 Reference value :  2.06391e-07
 Reference value :  2.25021e-07
 Reference value :  2.42796e-07
 Reference value :  2.60471e-07
 Reference value :  2.79089e-07
 Reference value :  2.97819e-07
 Reference value :  3.15274e-07
 Reference value :  3.33844e-07
No. of Data Rows : 68034

  Measurements for Transient Analysis

tplh                =  -1.32611e-10 targ=  2.65540e-08 trig=  2.66866e-08
tphl                =  6.43627e-10 targ=  1.02703e-07 trig=  1.02060e-07
i_vdd_avg           =  -3.10581e-06 from=  1.00000e-08 to=  3.30004e-07
power_avg_uw        =  6.03764e+00


Total analysis time (seconds) = 4.87557

Total elapsed time (seconds) = 5.045 

Total DRAM available = 16384.000 MB.
DRAM currently available =  131.281 MB.
Maximum ngspice program size =   29.578 MB.
Current ngspice program size =   29.578 MB.

