
Note: Compatibility modes selected: hs a


Circuit: SKY130 library cell oai21_1 A1_to_Y__A2=0,B1=1

option SCALE: Scale is set to 1e-06 for instance and model parameters
Doing analysis at TEMP = 30.203087 and TNOM = 27.000000

Using KLU as Direct Linear Solver
 Reference value :  3.81519e-08
 Reference value :  1.48661e-07
 Reference value :  2.55742e-07
No. of Data Rows : 68032

  Measurements for Transient Analysis

tphl                =  3.74736e-10 targ=  2.58044e-08 trig=  2.54297e-08
tplh                =  1.09728e-09 targ=  9.93864e-08 trig=  9.82891e-08
i_vdd_avg           =  -5.99970e-07 from=  1.00000e-08 to=  3.30001e-07
power_avg_uw        =  1.08705e+00


Total analysis time (seconds) = 0.823014

Total elapsed time (seconds) = 0.976 

Total DRAM available = 16384.000 MB.
DRAM currently available =  120.781 MB.
Maximum ngspice program size =   27.750 MB.
Current ngspice program size =   27.750 MB.

