
Note: Compatibility modes selected: hs a


Circuit: SKY130 library cell inv_4 A_to_Y

option SCALE: Scale is set to 1e-06 for instance and model parameters
Doing analysis at TEMP = 48.255991 and TNOM = 27.000000

Using KLU as Direct Linear Solver
 Reference value :  2.84825e-08
 Reference value :  1.20344e-07
 Reference value :  1.96328e-07
 Reference value :  2.84434e-07
No. of Data Rows : 68032

  Measurements for Transient Analysis

tphl                =  -1.68619e-10 targ=  2.96242e-08 trig=  2.97928e-08
tplh                =  1.83269e-09 targ=  1.13211e-07 trig=  1.11378e-07
i_vdd_avg           =  -4.00638e-06 from=  1.00000e-08 to=  3.30004e-07
power_avg_uw        =  7.36383e+00


Total analysis time (seconds) = 1.07547

Total elapsed time (seconds) = 1.233 

Total DRAM available = 16384.000 MB.
DRAM currently available =  157.422 MB.
Maximum ngspice program size =   25.312 MB.
Current ngspice program size =   25.312 MB.

