
Note: Compatibility modes selected: hs a


Circuit: SKY130 library cell nand3_4 A_to_Y__B=1,C=1

option SCALE: Scale is set to 1e-06 for instance and model parameters
Doing analysis at TEMP = 78.104909 and TNOM = 27.000000

Using KLU as Direct Linear Solver
 Reference value :  1.01764e-08
 Reference value :  4.11344e-08
 Reference value :  7.20394e-08
 Reference value :  1.01274e-07
 Reference value :  1.33481e-07
 Reference value :  1.64306e-07
 Reference value :  1.95724e-07
 Reference value :  2.25954e-07
 Reference value :  2.55184e-07
 Reference value :  2.86241e-07
 Reference value :  3.16616e-07
No. of Data Rows : 68030

  Measurements for Transient Analysis

tphl                =  8.88000e-11 targ=  2.94147e-08 trig=  2.93259e-08
tplh                =  1.27107e-09 targ=  1.11249e-07 trig=  1.09978e-07
i_vdd_avg           =  -3.49378e-06 from=  1.00000e-08 to=  3.30001e-07
power_avg_uw        =  6.41547e+00


Total analysis time (seconds) = 2.85465

Total elapsed time (seconds) = 3.048 

Total DRAM available = 16384.000 MB.
DRAM currently available =  236.531 MB.
Maximum ngspice program size =   26.016 MB.
Current ngspice program size =   26.016 MB.

