
Note: Compatibility modes selected: hs a


Circuit: SKY130 library cell aoi21_4 A1_to_Y__A2=1,B1=0

option SCALE: Scale is set to 1e-06 for instance and model parameters
Doing analysis at TEMP = 66.681022 and TNOM = 27.000000

Using KLU as Direct Linear Solver
 Reference value :  1.00114e-08
 Reference value :  3.95883e-08
 Reference value :  6.82133e-08
 Reference value :  9.65933e-08
 Reference value :  1.24804e-07
 Reference value :  1.55594e-07
 Reference value :  1.84963e-07
 Reference value :  2.15998e-07
 Reference value :  2.48853e-07
 Reference value :  2.77529e-07
 Reference value :  3.08434e-07
 Reference value :  3.36379e-07
No. of Data Rows : 68032

  Measurements for Transient Analysis

tphl                =  1.78203e-10 targ=  2.88686e-08 trig=  2.86904e-08
tplh                =  1.76068e-09 targ=  1.09832e-07 trig=  1.08071e-07
i_vdd_avg           =  -3.38921e-06 from=  1.00000e-08 to=  3.30004e-07
power_avg_uw        =  6.23738e+00


Total analysis time (seconds) = 3.00466

Total elapsed time (seconds) = 3.160 

Total DRAM available = 16384.000 MB.
DRAM currently available =  120.781 MB.
Maximum ngspice program size =   25.562 MB.
Current ngspice program size =   25.562 MB.

