
Note: Compatibility modes selected: hs a


Circuit: SKY130 library cell oai21_4 A1_to_Y__A2=0,B1=1

option SCALE: Scale is set to 1e-06 for instance and model parameters
Doing analysis at TEMP = 112.922860 and TNOM = 27.000000

Using KLU as Direct Linear Solver
 Reference value :  8.54640e-09
 Reference value :  3.85524e-08
 Reference value :  6.88624e-08
 Reference value :  9.86424e-08
 Reference value :  1.28227e-07
 Reference value :  1.57657e-07
 Reference value :  1.86698e-07
 Reference value :  2.19427e-07
 Reference value :  2.48112e-07
 Reference value :  2.76682e-07
 Reference value :  3.07302e-07
 Reference value :  3.36547e-07
No. of Data Rows : 68032

  Measurements for Transient Analysis

tphl                =  3.93687e-10 targ=  2.67562e-08 trig=  2.63625e-08
tplh                =  1.11626e-09 targ=  1.02204e-07 trig=  1.01087e-07
i_vdd_avg           =  -1.80535e-06 from=  1.00000e-08 to=  3.30002e-07
power_avg_uw        =  2.96175e+00


Total analysis time (seconds) = 2.9711

Total elapsed time (seconds) = 3.138 

Total DRAM available = 16384.000 MB.
DRAM currently available =  230.094 MB.
Maximum ngspice program size =   26.734 MB.
Current ngspice program size =   26.734 MB.

