
Note: Compatibility modes selected: hs a


Circuit: SKY130 library cell nand3_4 A_to_Y__B=1,C=1

option SCALE: Scale is set to 1e-06 for instance and model parameters
Doing analysis at TEMP = 1.816709 and TNOM = 27.000000

Using KLU as Direct Linear Solver
 Reference value :  7.48140e-09
 Reference value :  3.56626e-08
 Reference value :  6.82976e-08
 Reference value :  9.81776e-08
 Reference value :  1.28213e-07
 Reference value :  1.56108e-07
 Reference value :  1.85678e-07
 Reference value :  2.16883e-07
 Reference value :  2.46953e-07
 Reference value :  2.79083e-07
 Reference value :  3.08693e-07
 Reference value :  3.36438e-07
No. of Data Rows : 68032

  Measurements for Transient Analysis

tphl                =  3.15575e-10 targ=  2.54456e-08 trig=  2.51301e-08
tplh                =  7.16557e-10 targ=  9.81067e-08 trig=  9.73902e-08
i_vdd_avg           =  -1.38384e-06 from=  1.00000e-08 to=  3.30003e-07
power_avg_uw        =  2.41048e+00


Total analysis time (seconds) = 2.94057

Total elapsed time (seconds) = 3.137 

Total DRAM available = 16384.000 MB.
DRAM currently available =  118.859 MB.
Maximum ngspice program size =   26.797 MB.
Current ngspice program size =   26.797 MB.

