
Note: Compatibility modes selected: hs a


Circuit: SKY130 library cell inv_1 A_to_Y

option SCALE: Scale is set to 1e-06 for instance and model parameters
Doing analysis at TEMP = 89.672087 and TNOM = 27.000000

Using KLU as Direct Linear Solver
 Reference value :  8.37173e-08
 Reference value :  2.95357e-07
No. of Data Rows : 68032

  Measurements for Transient Analysis

tphl                =  4.07923e-10 targ=  2.49703e-08 trig=  2.45624e-08
tplh                =  6.97703e-10 targ=  9.63849e-08 trig=  9.56872e-08
i_vdd_avg           =  -8.11884e-07 from=  1.00000e-08 to=  3.30002e-07
power_avg_uw        =  1.35245e+00


Total analysis time (seconds) = 0.397402

Total elapsed time (seconds) = 0.554 

Total DRAM available = 16384.000 MB.
DRAM currently available =  154.297 MB.
Maximum ngspice program size =   25.109 MB.
Current ngspice program size =   25.109 MB.

