
Note: Compatibility modes selected: hs a


Circuit: SKY130 library cell nor2_1 A_to_Y__B=0

option SCALE: Scale is set to 1e-06 for instance and model parameters
Doing analysis at TEMP = -35.091423 and TNOM = 27.000000

Using KLU as Direct Linear Solver
 Reference value :  6.66453e-08
 Reference value :  2.16440e-07
No. of Data Rows : 68034

  Measurements for Transient Analysis

tphl                =  -3.30239e-11 targ=  2.91534e-08 trig=  2.91864e-08
tplh                =  2.62776e-09 targ=  1.12187e-07 trig=  1.09559e-07
i_vdd_avg           =  -9.25846e-07 from=  1.00000e-08 to=  3.30003e-07
power_avg_uw        =  1.77065e+00


Total analysis time (seconds) = 0.554061

Total elapsed time (seconds) = 0.689 

Total DRAM available = 16384.000 MB.
DRAM currently available =  144.250 MB.
Maximum ngspice program size =   26.828 MB.
Current ngspice program size =   26.828 MB.

