
Note: Compatibility modes selected: hs a


Circuit: SKY130 library cell aoi21_1 A1_to_Y__A2=1,B1=0

option SCALE: Scale is set to 1e-06 for instance and model parameters
Doing analysis at TEMP = -34.075461 and TNOM = 27.000000

Using KLU as Direct Linear Solver
 Reference value :  4.21137e-08
 Reference value :  1.43830e-07
 Reference value :  2.51604e-07
No. of Data Rows : 68032

  Measurements for Transient Analysis

tphl                =  8.55753e-11 targ=  2.49387e-08 trig=  2.48531e-08
tplh                =  5.17287e-10 targ=  9.70767e-08 trig=  9.65594e-08
i_vdd_avg           =  -1.13697e-07 from=  1.00000e-08 to=  3.30005e-07
power_avg_uw        =  1.95294e-01


Total analysis time (seconds) = 0.829292

Total elapsed time (seconds) = 0.997 

Total DRAM available = 16384.000 MB.
DRAM currently available =  129.891 MB.
Maximum ngspice program size =   25.203 MB.
Current ngspice program size =   25.203 MB.

