
Note: Compatibility modes selected: hs a


Circuit: SKY130 library cell nor2_4 A_to_Y__B=0

option SCALE: Scale is set to 1e-06 for instance and model parameters
Doing analysis at TEMP = 6.004711 and TNOM = 27.000000

Using KLU as Direct Linear Solver
 Reference value :  1.64164e-08
 Reference value :  6.15570e-08
 Reference value :  1.01152e-07
 Reference value :  1.45601e-07
 Reference value :  1.90377e-07
 Reference value :  2.37957e-07
 Reference value :  2.76041e-07
 Reference value :  3.17606e-07
No. of Data Rows : 68032

  Measurements for Transient Analysis

tphl                =  -9.51215e-11 targ=  2.58696e-08 trig=  2.59647e-08
tplh                =  7.35157e-10 targ=  1.00629e-07 trig=  9.98942e-08
i_vdd_avg           =  -8.51759e-07 from=  1.00000e-08 to=  3.30001e-07
power_avg_uw        =  1.55692e+00


Total analysis time (seconds) = 2.23147

Total elapsed time (seconds) = 2.377 

Total DRAM available = 16384.000 MB.
DRAM currently available =  111.438 MB.
Maximum ngspice program size =   24.500 MB.
Current ngspice program size =   11.484 MB.

