
Note: Compatibility modes selected: hs a


Circuit: SKY130 library cell oai21_1 A1_to_Y__A2=0,B1=1

option SCALE: Scale is set to 1e-06 for instance and model parameters
Doing analysis at TEMP = -15.855797 and TNOM = 27.000000

Using KLU as Direct Linear Solver
 Reference value :  3.49400e-08
 Reference value :  1.39797e-07
 Reference value :  2.51295e-07
No. of Data Rows : 68030

  Measurements for Transient Analysis

tphl                =  1.05879e-09 targ=  2.96250e-08 trig=  2.85662e-08
tplh                =  3.64520e-09 targ=  1.11344e-07 trig=  1.07699e-07
i_vdd_avg           =  -2.08158e-06 from=  1.00000e-08 to=  3.30002e-07
power_avg_uw        =  3.94514e+00


Total analysis time (seconds) = 0.862302

Total elapsed time (seconds) = 1.011 

Total DRAM available = 16384.000 MB.
DRAM currently available =  120.172 MB.
Maximum ngspice program size =   26.125 MB.
Current ngspice program size =   26.125 MB.

