
Note: Compatibility modes selected: hs a


Circuit: SKY130 library cell xor2_1 A_to_X__B=0

option SCALE: Scale is set to 1e-06 for instance and model parameters
Doing analysis at TEMP = 51.845043 and TNOM = 27.000000

Using KLU as Direct Linear Solver
 Reference value :  2.72575e-08
 Reference value :  9.45299e-08
 Reference value :  1.58047e-07
 Reference value :  2.25500e-07
 Reference value :  2.91012e-07
No. of Data Rows : 68030

  Measurements for Transient Analysis

tplh                =  5.16335e-10 targ=  2.64800e-08 trig=  2.59637e-08
tphl                =  7.05870e-10 targ=  1.00597e-07 trig=  9.98911e-08
i_vdd_avg           =  -6.61661e-07 from=  1.00000e-08 to=  3.30002e-07
power_avg_uw        =  1.09796e+00


Total analysis time (seconds) = 1.32559

Total elapsed time (seconds) = 1.487 

Total DRAM available = 16384.000 MB.
DRAM currently available =  133.266 MB.
Maximum ngspice program size =   26.172 MB.
Current ngspice program size =   26.172 MB.

