
Note: Compatibility modes selected: hs a


Circuit: SKY130 library cell nand2_4 A_to_Y__B=1

option SCALE: Scale is set to 1e-06 for instance and model parameters
Doing analysis at TEMP = 92.538069 and TNOM = 27.000000

Using KLU as Direct Linear Solver
 Reference value :  1.51564e-08
 Reference value :  5.75942e-08
 Reference value :  1.00406e-07
 Reference value :  1.44411e-07
 Reference value :  1.86669e-07
 Reference value :  2.30249e-07
 Reference value :  2.73466e-07
 Reference value :  3.18911e-07
No. of Data Rows : 68030

  Measurements for Transient Analysis

tphl                =  3.75060e-10 targ=  2.53334e-08 trig=  2.49584e-08
tplh                =  6.39107e-10 targ=  9.75142e-08 trig=  9.68751e-08
i_vdd_avg           =  -1.91129e-06 from=  1.00000e-08 to=  3.30001e-07
power_avg_uw        =  3.27312e+00


Total analysis time (seconds) = 2.03808

Total elapsed time (seconds) = 2.192 

Total DRAM available = 16384.000 MB.
DRAM currently available =  284.078 MB.
Maximum ngspice program size =   26.859 MB.
Current ngspice program size =   26.859 MB.

