
Note: Compatibility modes selected: hs a


Circuit: SKY130 library cell nor2_4 A_to_Y__B=0

option SCALE: Scale is set to 1e-06 for instance and model parameters
Doing analysis at TEMP = 26.539401 and TNOM = 27.000000

Using KLU as Direct Linear Solver
 Reference value :  1.18614e-08
 Reference value :  5.87229e-08
 Reference value :  1.01968e-07
 Reference value :  1.44988e-07
 Reference value :  1.90948e-07
 Reference value :  2.42088e-07
 Reference value :  2.84173e-07
 Reference value :  3.29183e-07
No. of Data Rows : 68032

  Measurements for Transient Analysis

tphl                =  1.64417e-10 targ=  2.47571e-08 trig=  2.45927e-08
tplh                =  5.37652e-10 targ=  9.63158e-08 trig=  9.57782e-08
i_vdd_avg           =  -1.09775e-06 from=  1.00000e-08 to=  3.30003e-07
power_avg_uw        =  1.90179e+00


Total analysis time (seconds) = 1.9152

Total elapsed time (seconds) = 2.100 

Total DRAM available = 16384.000 MB.
DRAM currently available =  111.125 MB.
Maximum ngspice program size =   26.484 MB.
Current ngspice program size =   26.484 MB.

