
Note: Compatibility modes selected: hs a


Circuit: SKY130 library cell aoi21_4 A1_to_Y__A2=1,B1=0

option SCALE: Scale is set to 1e-06 for instance and model parameters
Doing analysis at TEMP = 15.175926 and TNOM = 27.000000

Using KLU as Direct Linear Solver
 Reference value :  8.98140e-09
 Reference value :  3.86579e-08
 Reference value :  6.88779e-08
 Reference value :  9.91729e-08
 Reference value :  1.29343e-07
 Reference value :  1.59343e-07
 Reference value :  1.88493e-07
 Reference value :  2.18123e-07
 Reference value :  2.47578e-07
 Reference value :  2.76183e-07
 Reference value :  3.08723e-07
 Reference value :  3.38648e-07
No. of Data Rows : 68032

  Measurements for Transient Analysis

tphl                =  1.51611e-10 targ=  2.58918e-08 trig=  2.57402e-08
tplh                =  8.88020e-10 targ=  1.00109e-07 trig=  9.92206e-08
i_vdd_avg           =  -1.09223e-06 from=  1.00000e-08 to=  3.30003e-07
power_avg_uw        =  1.91721e+00


Total analysis time (seconds) = 2.94363

Total elapsed time (seconds) = 3.118 

Total DRAM available = 16384.000 MB.
DRAM currently available =  148.500 MB.
Maximum ngspice program size =   25.672 MB.
Current ngspice program size =   25.672 MB.

