
Note: Compatibility modes selected: hs a


Circuit: SKY130 library cell aoi21_4 A1_to_Y__A2=1,B1=0

option SCALE: Scale is set to 1e-06 for instance and model parameters
Doing analysis at TEMP = -12.252454 and TNOM = 27.000000

Using KLU as Direct Linear Solver
 Reference value :  9.82140e-09
 Reference value :  4.25905e-08
 Reference value :  7.33405e-08
 Reference value :  1.01980e-07
 Reference value :  1.32528e-07
 Reference value :  1.63568e-07
 Reference value :  1.94910e-07
 Reference value :  2.24785e-07
 Reference value :  2.56275e-07
 Reference value :  2.86558e-07
 Reference value :  3.17418e-07
No. of Data Rows : 68034

  Measurements for Transient Analysis

tphl                =  -4.86630e-10 targ=  2.72599e-08 trig=  2.77465e-08
tplh                =  8.68881e-10 targ=  1.06108e-07 trig=  1.05239e-07
i_vdd_avg           =  -4.38889e-07 from=  1.00000e-08 to=  3.30003e-07
power_avg_uw        =  7.58853e-01


Total analysis time (seconds) = 2.90786

Total elapsed time (seconds) = 3.070 

Total DRAM available = 16384.000 MB.
DRAM currently available =  320.359 MB.
Maximum ngspice program size =   28.328 MB.
Current ngspice program size =   28.328 MB.

