
Note: Compatibility modes selected: hs a


Circuit: SKY130 library cell nand2_4 A_to_Y__B=1

option SCALE: Scale is set to 1e-06 for instance and model parameters
Doing analysis at TEMP = -22.440455 and TNOM = 27.000000

Using KLU as Direct Linear Solver
 Reference value :  1.53114e-08
 Reference value :  6.11478e-08
 Reference value :  1.07943e-07
 Reference value :  1.53818e-07
 Reference value :  2.04263e-07
 Reference value :  2.50553e-07
 Reference value :  2.92533e-07
 Reference value :  3.32498e-07
No. of Data Rows : 68032

  Measurements for Transient Analysis

tphl                =  -4.76575e-11 targ=  2.70400e-08 trig=  2.70876e-08
tplh                =  1.13754e-09 targ=  1.04400e-07 trig=  1.03263e-07
i_vdd_avg           =  -1.73804e-06 from=  1.00000e-08 to=  3.30003e-07
power_avg_uw        =  3.28414e+00


Total analysis time (seconds) = 1.95214

Total elapsed time (seconds) = 2.126 

Total DRAM available = 16384.000 MB.
DRAM currently available =  120.781 MB.
Maximum ngspice program size =   25.562 MB.
Current ngspice program size =   25.562 MB.

