
Note: Compatibility modes selected: hs a


Circuit: SKY130 library cell nand3_1 A_to_Y__B=1,C=1

option SCALE: Scale is set to 1e-06 for instance and model parameters
Doing analysis at TEMP = 62.738643 and TNOM = 27.000000

Using KLU as Direct Linear Solver
 Reference value :  4.82008e-08
 Reference value :  1.47789e-07
 Reference value :  2.59011e-07
No. of Data Rows : 68034

  Measurements for Transient Analysis

tphl                =  2.65843e-10 targ=  2.60100e-08 trig=  2.57442e-08
tplh                =  6.86915e-10 targ=  9.99194e-08 trig=  9.92325e-08
i_vdd_avg           =  -5.28292e-07 from=  1.00000e-08 to=  3.30004e-07
power_avg_uw        =  1.01538e+00


Total analysis time (seconds) = 0.789627

Total elapsed time (seconds) = 0.934 

Total DRAM available = 16384.000 MB.
DRAM currently available =  182.250 MB.
Maximum ngspice program size =   25.203 MB.
Current ngspice program size =   25.203 MB.

