
Note: Compatibility modes selected: hs a


Circuit: SKY130 library cell mux2_4 A0_to_X__A1=0,S=0

option SCALE: Scale is set to 1e-06 for instance and model parameters
Doing analysis at TEMP = 26.282055 and TNOM = 27.000000

Using KLU as Direct Linear Solver
 Reference value :  1.50864e-08
 Reference value :  5.79131e-08
 Reference value :  9.72781e-08
 Reference value :  1.37919e-07
 Reference value :  1.75589e-07
 Reference value :  2.13828e-07
 Reference value :  2.56923e-07
 Reference value :  2.98524e-07
 Reference value :  3.33899e-07
No. of Data Rows : 68032

  Measurements for Transient Analysis

tplh                =  3.87392e-10 targ=  2.52877e-08 trig=  2.49003e-08
tphl                =  6.48109e-10 targ=  9.73490e-08 trig=  9.67009e-08
i_vdd_avg           =  -2.06275e-06 from=  1.00000e-08 to=  3.30004e-07
power_avg_uw        =  3.58407e+00


Total analysis time (seconds) = 2.17906

Total elapsed time (seconds) = 2.339 

Total DRAM available = 16384.000 MB.
DRAM currently available =  176.844 MB.
Maximum ngspice program size =   27.391 MB.
Current ngspice program size =   27.391 MB.

