
Note: Compatibility modes selected: hs a


Circuit: SKY130 library cell oai21_1 A1_to_Y__A2=0,B1=1

option SCALE: Scale is set to 1e-06 for instance and model parameters
Doing analysis at TEMP = 106.786300 and TNOM = 27.000000

Using KLU as Direct Linear Solver
 Reference value :  3.93545e-08
 Reference value :  1.40977e-07
 Reference value :  2.41450e-07
No. of Data Rows : 68030

  Measurements for Transient Analysis

tphl                =  2.22789e-10 targ=  2.98738e-08 trig=  2.96510e-08
tplh                =  1.82648e-09 targ=  1.12780e-07 trig=  1.10953e-07
i_vdd_avg           =  -7.34085e-07 from=  1.00000e-08 to=  3.30002e-07
power_avg_uw        =  1.24324e+00


Total analysis time (seconds) = 0.840585

Total elapsed time (seconds) = 0.985 

Total DRAM available = 16384.000 MB.
DRAM currently available =  173.359 MB.
Maximum ngspice program size =   25.984 MB.
Current ngspice program size =   25.984 MB.

