
Note: Compatibility modes selected: hs a


Circuit: SKY130 library cell mux2_1 A0_to_X__A1=0,S=0

option SCALE: Scale is set to 1e-06 for instance and model parameters
Doing analysis at TEMP = 89.462981 and TNOM = 27.000000

Using KLU as Direct Linear Solver
 Reference value :  1.69814e-08
 Reference value :  6.88461e-08
 Reference value :  1.24960e-07
 Reference value :  1.83210e-07
 Reference value :  2.37496e-07
 Reference value :  2.95890e-07
No. of Data Rows : 68034

  Measurements for Transient Analysis

tplh                =  -2.89876e-10 targ=  2.95419e-08 trig=  2.98318e-08
tphl                =  1.51701e-09 targ=  1.13012e-07 trig=  1.11495e-07
i_vdd_avg           =  -9.69472e-07 from=  1.00000e-08 to=  3.30005e-07
power_avg_uw        =  1.81788e+00


Total analysis time (seconds) = 1.58533

Total elapsed time (seconds) = 1.756 

Total DRAM available = 16384.000 MB.
DRAM currently available =   86.891 MB.
Maximum ngspice program size =   27.609 MB.
Current ngspice program size =   27.609 MB.

