
Note: Compatibility modes selected: hs a


Circuit: SKY130 library cell inv_4 A_to_Y

option SCALE: Scale is set to 1e-06 for instance and model parameters
Doing analysis at TEMP = 106.074400 and TNOM = 27.000000

Using KLU as Direct Linear Solver
 Reference value :  3.20028e-08
 Reference value :  1.20003e-07
 Reference value :  2.09808e-07
 Reference value :  2.90673e-07
No. of Data Rows : 68032

  Measurements for Transient Analysis

tphl                =  -7.40450e-11 targ=  2.70761e-08 trig=  2.71501e-08
tplh                =  8.58871e-10 targ=  1.04309e-07 trig=  1.03450e-07
i_vdd_avg           =  -3.29003e-06 from=  1.00000e-08 to=  3.30003e-07
power_avg_uw        =  6.21285e+00


Total analysis time (seconds) = 1.03395

Total elapsed time (seconds) = 1.193 

Total DRAM available = 16384.000 MB.
DRAM currently available =  130.641 MB.
Maximum ngspice program size =   26.969 MB.
Current ngspice program size =   26.969 MB.

