
Note: Compatibility modes selected: hs a


Circuit: SKY130 library cell nor2_4 A_to_Y__B=0

option SCALE: Scale is set to 1e-06 for instance and model parameters
Doing analysis at TEMP = 63.675214 and TNOM = 27.000000

Using KLU as Direct Linear Solver
 Reference value :  1.81614e-08
 Reference value :  6.63883e-08
 Reference value :  1.09368e-07
 Reference value :  1.56104e-07
 Reference value :  2.02653e-07
 Reference value :  2.45933e-07
 Reference value :  2.91579e-07
 Reference value :  3.35194e-07
No. of Data Rows : 68032

  Measurements for Transient Analysis

tphl                =  -1.68870e-10 targ=  2.79990e-08 trig=  2.81679e-08
tplh                =  1.47616e-09 targ=  1.07980e-07 trig=  1.06504e-07
i_vdd_avg           =  -3.77370e-06 from=  1.00000e-08 to=  3.30004e-07
power_avg_uw        =  7.37521e+00


Total analysis time (seconds) = 1.9505

Total elapsed time (seconds) = 2.108 

Total DRAM available = 16384.000 MB.
DRAM currently available =  133.266 MB.
Maximum ngspice program size =   24.750 MB.
Current ngspice program size =   24.750 MB.

