
Note: Compatibility modes selected: hs a


Circuit: SKY130 library cell oai21_1 A1_to_Y__A2=0,B1=1

option SCALE: Scale is set to 1e-06 for instance and model parameters
Doing analysis at TEMP = -5.272757 and TNOM = 27.000000

Using KLU as Direct Linear Solver
 Reference value :  4.28847e-08
 Reference value :  1.40532e-07
 Reference value :  2.48215e-07
No. of Data Rows : 68030

  Measurements for Transient Analysis

tphl                =  1.36764e-09 targ=  2.82087e-08 trig=  2.68411e-08
tplh                =  3.54813e-09 targ=  1.06071e-07 trig=  1.02523e-07
i_vdd_avg           =  -2.35872e-06 from=  1.00000e-08 to=  3.30002e-07
power_avg_uw        =  4.23819e+00


Total analysis time (seconds) = 0.839111

Total elapsed time (seconds) = 0.980 

Total DRAM available = 16384.000 MB.
DRAM currently available =  176.844 MB.
Maximum ngspice program size =   27.000 MB.
Current ngspice program size =   27.000 MB.

