Note: Starting dynamic gmin stepping
Note: Dynamic gmin stepping completed

Note: Compatibility modes selected: hs a


Circuit: SKY130 library cell mux2_1 A0_to_X__A1=0,S=0

option SCALE: Scale is set to 1e-06 for instance and model parameters
Doing analysis at TEMP = -16.047016 and TNOM = 27.000000

Using KLU as Direct Linear Solver
 Reference value :  2.22514e-08
 Reference value :  7.47083e-08
 Reference value :  1.33504e-07
 Reference value :  1.92673e-07
 Reference value :  2.51613e-07
 Reference value :  3.03839e-07
No. of Data Rows : 68032

  Measurements for Transient Analysis

tplh                =  9.94164e-10 targ=  2.70071e-08 trig=  2.60129e-08
tphl                =  1.15892e-09 targ=  1.01198e-07 trig=  1.00039e-07
i_vdd_avg           =  -2.39598e-06 from=  1.00000e-08 to=  3.30004e-07
power_avg_uw        =  4.40842e+00


Total analysis time (seconds) = 1.59411

Total elapsed time (seconds) = 1.766 

Total DRAM available = 16384.000 MB.
DRAM currently available =  320.359 MB.
Maximum ngspice program size =   27.781 MB.
Current ngspice program size =   27.781 MB.

