
Note: Compatibility modes selected: hs a


Circuit: SKY130 library cell inv_1 A_to_Y

option SCALE: Scale is set to 1e-06 for instance and model parameters
Doing analysis at TEMP = 55.792038 and TNOM = 27.000000

Using KLU as Direct Linear Solver
 Reference value :  1.04935e-07
 Reference value :  3.33062e-07
No. of Data Rows : 68030

  Measurements for Transient Analysis

tphl                =  8.83983e-10 targ=  2.86177e-08 trig=  2.77337e-08
tplh                =  2.40940e-09 targ=  1.07611e-07 trig=  1.05201e-07
i_vdd_avg           =  -1.40752e-06 from=  1.00000e-08 to=  3.30002e-07
power_avg_uw        =  2.38509e+00


Total analysis time (seconds) = 0.35836

Total elapsed time (seconds) = 0.520 

Total DRAM available = 16384.000 MB.
DRAM currently available =  133.266 MB.
Maximum ngspice program size =   25.156 MB.
Current ngspice program size =   25.156 MB.

