
Note: Compatibility modes selected: hs a


Circuit: SKY130 library cell nand3_1 A_to_Y__B=1,C=1

option SCALE: Scale is set to 1e-06 for instance and model parameters
Doing analysis at TEMP = 22.138109 and TNOM = 27.000000

Using KLU as Direct Linear Solver
 Reference value :  4.04343e-08
 Reference value :  1.38611e-07
 Reference value :  2.49859e-07
No. of Data Rows : 68030

  Measurements for Transient Analysis

tphl                =  4.66875e-10 targ=  2.53328e-08 trig=  2.48659e-08
tplh                =  7.47235e-10 targ=  9.73449e-08 trig=  9.65977e-08
i_vdd_avg           =  -5.27846e-07 from=  1.00000e-08 to=  3.30001e-07
power_avg_uw        =  9.00595e-01


Total analysis time (seconds) = 0.828437

Total elapsed time (seconds) = 1.017 

Total DRAM available = 16384.000 MB.
DRAM currently available =  320.359 MB.
Maximum ngspice program size =   26.891 MB.
Current ngspice program size =   26.891 MB.

