
Note: Compatibility modes selected: hs a


Circuit: SKY130 library cell inv_4 A_to_Y

option SCALE: Scale is set to 1e-06 for instance and model parameters
Doing analysis at TEMP = -38.475241 and TNOM = 27.000000

Using KLU as Direct Linear Solver
 Reference value :  3.41386e-08
 Reference value :  1.27080e-07
 Reference value :  2.08904e-07
 Reference value :  2.96590e-07
No. of Data Rows : 68032

  Measurements for Transient Analysis

tphl                =  1.39590e-10 targ=  2.42251e-08 trig=  2.40856e-08
tplh                =  3.33818e-10 targ=  9.45905e-08 trig=  9.42567e-08
i_vdd_avg           =  -2.17964e-06 from=  1.00000e-08 to=  3.30005e-07
power_avg_uw        =  3.85589e+00


Total analysis time (seconds) = 1.0098

Total elapsed time (seconds) = 1.180 

Total DRAM available = 16384.000 MB.
DRAM currently available =  144.250 MB.
Maximum ngspice program size =   27.719 MB.
Current ngspice program size =   27.719 MB.

