Note: Starting dynamic gmin stepping
Note: Dynamic gmin stepping completed

Note: Compatibility modes selected: hs a


Circuit: SKY130 library cell mux2_1 A0_to_X__A1=0,S=0

option SCALE: Scale is set to 1e-06 for instance and model parameters
Doing analysis at TEMP = 24.674935 and TNOM = 27.000000

Using KLU as Direct Linear Solver
 Reference value :  2.12914e-08
 Reference value :  8.18462e-08
 Reference value :  1.43985e-07
 Reference value :  1.99901e-07
 Reference value :  2.55606e-07
 Reference value :  3.19625e-07
No. of Data Rows : 68034

  Measurements for Transient Analysis

tplh                =  2.08524e-10 targ=  2.51079e-08 trig=  2.48993e-08
tphl                =  4.86868e-10 targ=  9.71849e-08 trig=  9.66980e-08
i_vdd_avg           =  -1.67526e-07 from=  1.00000e-08 to=  3.30005e-07
power_avg_uw        =  2.72918e-01


Total analysis time (seconds) = 1.47787

Total elapsed time (seconds) = 1.655 

Total DRAM available = 16384.000 MB.
DRAM currently available =  144.250 MB.
Maximum ngspice program size =   26.344 MB.
Current ngspice program size =   26.344 MB.

