
Note: Compatibility modes selected: hs a


Circuit: SKY130 library cell inv_1 A_to_Y

option SCALE: Scale is set to 1e-06 for instance and model parameters
Doing analysis at TEMP = 6.054648 and TNOM = 27.000000

Using KLU as Direct Linear Solver
 Reference value :  1.05954e-07
No. of Data Rows : 68030

  Measurements for Transient Analysis

tphl                =  7.30481e-10 targ=  2.99739e-08 trig=  2.92434e-08
tplh                =  3.08804e-09 targ=  1.12818e-07 trig=  1.09730e-07
i_vdd_avg           =  -1.96388e-06 from=  1.00000e-08 to=  3.30001e-07
power_avg_uw        =  3.65119e+00


Total analysis time (seconds) = 0.356755

Total elapsed time (seconds) = 0.503 

Total DRAM available = 16384.000 MB.
DRAM currently available =  236.531 MB.
Maximum ngspice program size =   26.391 MB.
Current ngspice program size =   26.391 MB.

