
Note: Compatibility modes selected: hs a


Circuit: SKY130 library cell aoi21_1 A1_to_Y__A2=1,B1=0

option SCALE: Scale is set to 1e-06 for instance and model parameters
Doing analysis at TEMP = 118.834790 and TNOM = 27.000000

Using KLU as Direct Linear Solver
 Reference value :  3.44136e-08
 Reference value :  1.39710e-07
 Reference value :  2.52614e-07
No. of Data Rows : 68032

  Measurements for Transient Analysis

tphl                =  3.61743e-10 targ=  2.89098e-08 trig=  2.85481e-08
tplh                =  1.63323e-09 targ=  1.09277e-07 trig=  1.07644e-07
i_vdd_avg           =  -1.25721e-06 from=  1.00000e-08 to=  3.30005e-07
power_avg_uw        =  2.39200e+00


Total analysis time (seconds) = 0.817724

Total elapsed time (seconds) = 0.970 

Total DRAM available = 16384.000 MB.
DRAM currently available =  154.297 MB.
Maximum ngspice program size =   26.312 MB.
Current ngspice program size =   26.312 MB.

