
Note: Compatibility modes selected: hs a


Circuit: SKY130 library cell oai21_4 A1_to_Y__A2=0,B1=1

option SCALE: Scale is set to 1e-06 for instance and model parameters
Doing analysis at TEMP = -38.772813 and TNOM = 27.000000

Using KLU as Direct Linear Solver
 Reference value :  9.38640e-09
 Reference value :  3.88794e-08
 Reference value :  6.93694e-08
 Reference value :  1.01646e-07
 Reference value :  1.32826e-07
 Reference value :  1.61071e-07
 Reference value :  1.92694e-07
 Reference value :  2.21954e-07
 Reference value :  2.50634e-07
 Reference value :  2.81771e-07
 Reference value :  3.11826e-07
No. of Data Rows : 68030

  Measurements for Transient Analysis

tphl                =  3.17919e-10 targ=  2.56114e-08 trig=  2.52934e-08
tplh                =  1.10822e-09 targ=  9.89886e-08 trig=  9.78803e-08
i_vdd_avg           =  -2.12150e-06 from=  1.00000e-08 to=  3.30001e-07
power_avg_uw        =  3.90600e+00


Total analysis time (seconds) = 2.95119

Total elapsed time (seconds) = 3.143 

Total DRAM available = 16384.000 MB.
DRAM currently available =  304.875 MB.
Maximum ngspice program size =   26.000 MB.
Current ngspice program size =   26.000 MB.

