
Note: Compatibility modes selected: hs a


Circuit: SKY130 library cell mux2_1 A0_to_X__A1=0,S=0

option SCALE: Scale is set to 1e-06 for instance and model parameters
Doing analysis at TEMP = 66.808766 and TNOM = 27.000000

Using KLU as Direct Linear Solver
 Reference value :  2.18514e-08
 Reference value :  7.68639e-08
 Reference value :  1.35260e-07
 Reference value :  1.91328e-07
 Reference value :  2.47534e-07
 Reference value :  3.03740e-07
No. of Data Rows : 68030

  Measurements for Transient Analysis

tplh                =  2.31883e-10 targ=  2.91951e-08 trig=  2.89632e-08
tphl                =  1.54724e-09 targ=  1.10437e-07 trig=  1.08890e-07
i_vdd_avg           =  -1.38026e-06 from=  1.00000e-08 to=  3.30000e-07
power_avg_uw        =  2.44917e+00


Total analysis time (seconds) = 1.58311

Total elapsed time (seconds) = 1.741 

Total DRAM available = 16384.000 MB.
DRAM currently available =  148.500 MB.
Maximum ngspice program size =   27.828 MB.
Current ngspice program size =   27.828 MB.

