
Note: Compatibility modes selected: hs a


Circuit: SKY130 library cell nor2_1 A_to_Y__B=0

option SCALE: Scale is set to 1e-06 for instance and model parameters
Doing analysis at TEMP = 13.451469 and TNOM = 27.000000

Using KLU as Direct Linear Solver
 Reference value :  5.83598e-08
 Reference value :  2.21295e-07
No. of Data Rows : 68030

  Measurements for Transient Analysis

tphl                =  8.70937e-10 targ=  2.97546e-08 trig=  2.88836e-08
tplh                =  3.70232e-09 targ=  1.12353e-07 trig=  1.08651e-07
i_vdd_avg           =  -1.90082e-06 from=  1.00000e-08 to=  3.30002e-07
power_avg_uw        =  3.44809e+00


Total analysis time (seconds) = 0.576982

Total elapsed time (seconds) = 0.728 

Total DRAM available = 16384.000 MB.
DRAM currently available =  148.500 MB.
Maximum ngspice program size =   27.703 MB.
Current ngspice program size =   27.703 MB.

