
Note: Compatibility modes selected: hs a


Circuit: SKY130 library cell xor2_1 A_to_X__B=0

option SCALE: Scale is set to 1e-06 for instance and model parameters
Doing analysis at TEMP = -39.502240 and TNOM = 27.000000

Using KLU as Direct Linear Solver
 Reference value :  3.36981e-08
 Reference value :  1.13224e-07
 Reference value :  1.93388e-07
 Reference value :  2.66503e-07
No. of Data Rows : 68032

  Measurements for Transient Analysis

tplh                =  4.55959e-09 targ=  3.25674e-08 trig=  2.80078e-08
tphl                =  2.23463e-09 targ=  1.08258e-07 trig=  1.06023e-07
i_vdd_avg           =  -2.45290e-06 from=  1.00000e-08 to=  3.30004e-07
power_avg_uw        =  4.56523e+00


Total analysis time (seconds) = 1.10725

Total elapsed time (seconds) = 1.235 

Total DRAM available = 16384.000 MB.
DRAM currently available =  155.953 MB.
Maximum ngspice program size =   25.703 MB.
Current ngspice program size =   25.703 MB.

