
Note: Compatibility modes selected: hs a


Circuit: SKY130 library cell aoi21_4 A1_to_Y__A2=1,B1=0

option SCALE: Scale is set to 1e-06 for instance and model parameters
Doing analysis at TEMP = 108.270120 and TNOM = 27.000000

Using KLU as Direct Linear Solver
 Reference value :  1.39964e-08
 Reference value :  4.66463e-08
 Reference value :  8.02763e-08
 Reference value :  1.13330e-07
 Reference value :  1.47445e-07
 Reference value :  1.79535e-07
 Reference value :  2.11336e-07
 Reference value :  2.43506e-07
 Reference value :  2.76125e-07
 Reference value :  3.09430e-07
No. of Data Rows : 68032

  Measurements for Transient Analysis

tphl                =  1.79168e-09 targ=  3.00761e-08 trig=  2.82844e-08
tplh                =  2.58088e-09 targ=  1.09434e-07 trig=  1.06853e-07
i_vdd_avg           =  -1.84669e-06 from=  1.00000e-08 to=  3.30000e-07
power_avg_uw        =  3.12960e+00


Total analysis time (seconds) = 2.61611

Total elapsed time (seconds) = 2.749 

Total DRAM available = 16384.000 MB.
DRAM currently available =  146.891 MB.
Maximum ngspice program size =   26.844 MB.
Current ngspice program size =   26.844 MB.

