
Note: Compatibility modes selected: hs a


Circuit: SKY130 library cell nor2_1 A_to_Y__B=0

option SCALE: Scale is set to 1e-06 for instance and model parameters
Doing analysis at TEMP = 108.719120 and TNOM = 27.000000

Using KLU as Direct Linear Solver
 Reference value :  6.38443e-08
 Reference value :  2.30319e-07
No. of Data Rows : 68030

  Measurements for Transient Analysis

tphl                =  7.76028e-10 targ=  2.56394e-08 trig=  2.48634e-08
tplh                =  1.71271e-09 targ=  9.83029e-08 trig=  9.65902e-08
i_vdd_avg           =  -1.05342e-06 from=  1.00000e-08 to=  3.30001e-07
power_avg_uw        =  2.01950e+00


Total analysis time (seconds) = 0.519432

Total elapsed time (seconds) = 0.657 

Total DRAM available = 16384.000 MB.
DRAM currently available =  168.203 MB.
Maximum ngspice program size =   25.828 MB.
Current ngspice program size =   25.828 MB.

