
Note: Compatibility modes selected: hs a


Circuit: SKY130 library cell nor2_4 A_to_Y__B=0

option SCALE: Scale is set to 1e-06 for instance and model parameters
Doing analysis at TEMP = -4.346610 and TNOM = 27.000000

Using KLU as Direct Linear Solver
 Reference value :  1.77564e-08
 Reference value :  6.56956e-08
 Reference value :  1.11029e-07
 Reference value :  1.57824e-07
 Reference value :  2.04146e-07
 Reference value :  2.48751e-07
 Reference value :  2.95539e-07
No. of Data Rows : 68034

  Measurements for Transient Analysis

tphl                =  1.18086e-09 targ=  2.94199e-08 trig=  2.82390e-08
tplh                =  2.84849e-09 targ=  1.09566e-07 trig=  1.06717e-07
i_vdd_avg           =  -1.27301e-06 from=  1.00000e-08 to=  3.30004e-07
power_avg_uw        =  2.22947e+00


Total analysis time (seconds) = 1.8478

Total elapsed time (seconds) = 1.994 

Total DRAM available = 16384.000 MB.
DRAM currently available =   99.891 MB.
Maximum ngspice program size =   25.375 MB.
Current ngspice program size =   25.375 MB.

