
Note: Compatibility modes selected: hs a


Circuit: SKY130 library cell inv_1 A_to_Y

option SCALE: Scale is set to 1e-06 for instance and model parameters
Doing analysis at TEMP = -11.355583 and TNOM = 27.000000

Using KLU as Direct Linear Solver
 Reference value :  1.05427e-07
No. of Data Rows : 68032

  Measurements for Transient Analysis

tphl                =  1.82369e-09 targ=  3.12684e-08 trig=  2.94448e-08
tplh                =  3.73063e-09 targ=  1.14065e-07 trig=  1.10334e-07
i_vdd_avg           =  -4.69411e-07 from=  1.00000e-08 to=  3.30002e-07
power_avg_uw        =  7.97331e-01


Total analysis time (seconds) = 0.31412

Total elapsed time (seconds) = 0.454 

Total DRAM available = 16384.000 MB.
DRAM currently available =  135.953 MB.
Maximum ngspice program size =   26.594 MB.
Current ngspice program size =   26.594 MB.

