
Note: Compatibility modes selected: hs a


Circuit: SKY130 library cell nor2_4 A_to_Y__B=0

option SCALE: Scale is set to 1e-06 for instance and model parameters
Doing analysis at TEMP = 37.311673 and TNOM = 27.000000

Using KLU as Direct Linear Solver
 Reference value :  1.74514e-08
 Reference value :  6.73016e-08
 Reference value :  1.18496e-07
 Reference value :  1.67106e-07
 Reference value :  2.15362e-07
 Reference value :  2.64747e-07
 Reference value :  3.14521e-07
No. of Data Rows : 68032

  Measurements for Transient Analysis

tphl                =  1.24416e-09 targ=  2.80537e-08 trig=  2.68095e-08
tplh                =  2.54611e-09 targ=  1.04975e-07 trig=  1.02429e-07
i_vdd_avg           =  -2.16099e-06 from=  1.00000e-08 to=  3.30001e-07
power_avg_uw        =  3.74942e+00


Total analysis time (seconds) = 1.74749

Total elapsed time (seconds) = 1.894 

Total DRAM available = 16384.000 MB.
DRAM currently available =   80.062 MB.
Maximum ngspice program size =   27.516 MB.
Current ngspice program size =   27.516 MB.

