
Note: Compatibility modes selected: hs a


Circuit: SKY130 library cell nand2_1 A_to_Y__B=1

option SCALE: Scale is set to 1e-06 for instance and model parameters
Doing analysis at TEMP = 120.909080 and TNOM = 27.000000

Using KLU as Direct Linear Solver
 Reference value :  5.50018e-08
 Reference value :  2.23812e-07
No. of Data Rows : 68032

  Measurements for Transient Analysis

tphl                =  5.25851e-10 targ=  2.64155e-08 trig=  2.58896e-08
tplh                =  7.11516e-10 targ=  1.00380e-07 trig=  9.96689e-08
i_vdd_avg           =  -2.66080e-07 from=  1.00000e-08 to=  3.30001e-07
power_avg_uw        =  5.25270e-01


Total analysis time (seconds) = 0.50453

Total elapsed time (seconds) = 0.664 

Total DRAM available = 16384.000 MB.
DRAM currently available =  216.516 MB.
Maximum ngspice program size =   27.078 MB.
Current ngspice program size =   27.078 MB.

