
Note: Compatibility modes selected: hs a


Circuit: SKY130 library cell mux2_1 A0_to_X__A1=0,S=0

option SCALE: Scale is set to 1e-06 for instance and model parameters
Doing analysis at TEMP = 122.504820 and TNOM = 27.000000

Using KLU as Direct Linear Solver
 Reference value :  2.73625e-08
 Reference value :  9.18038e-08
 Reference value :  1.53350e-07
 Reference value :  2.20414e-07
 Reference value :  2.86595e-07
No. of Data Rows : 68030

  Measurements for Transient Analysis

tplh                =  1.86608e-09 targ=  3.08743e-08 trig=  2.90082e-08
tphl                =  2.51101e-09 targ=  1.11536e-07 trig=  1.09025e-07
i_vdd_avg           =  -2.12399e-06 from=  1.00000e-08 to=  3.30000e-07
power_avg_uw        =  3.86852e+00


Total analysis time (seconds) = 1.34317

Total elapsed time (seconds) = 1.471 

Total DRAM available = 16384.000 MB.
DRAM currently available =  157.531 MB.
Maximum ngspice program size =   24.406 MB.
Current ngspice program size =   24.406 MB.

