
Note: Compatibility modes selected: hs a


Circuit: SKY130 library cell mux2_4 A0_to_X__A1=0,S=0

option SCALE: Scale is set to 1e-06 for instance and model parameters
Doing analysis at TEMP = 6.201833 and TNOM = 27.000000

Using KLU as Direct Linear Solver
 Reference value :  1.58564e-08
 Reference value :  5.50943e-08
 Reference value :  9.58143e-08
 Reference value :  1.36646e-07
 Reference value :  1.79971e-07
 Reference value :  2.20484e-07
 Reference value :  2.63156e-07
 Reference value :  3.06376e-07
No. of Data Rows : 68030

  Measurements for Transient Analysis

tplh                =  5.64055e-10 targ=  2.55224e-08 trig=  2.49584e-08
tphl                =  8.45806e-10 targ=  9.77209e-08 trig=  9.68751e-08
i_vdd_avg           =  -1.09944e-06 from=  1.00000e-08 to=  3.30001e-07
power_avg_uw        =  2.12728e+00


Total analysis time (seconds) = 2.07545

Total elapsed time (seconds) = 2.230 

Total DRAM available = 16384.000 MB.
DRAM currently available =  146.891 MB.
Maximum ngspice program size =   25.438 MB.
Current ngspice program size =   25.438 MB.

