
Note: Compatibility modes selected: hs a


Circuit: SKY130 library cell aoi21_1 A1_to_Y__A2=1,B1=0

option SCALE: Scale is set to 1e-06 for instance and model parameters
Doing analysis at TEMP = 123.189170 and TNOM = 27.000000

Using KLU as Direct Linear Solver
 Reference value :  4.54526e-08
 Reference value :  1.55503e-07
 Reference value :  2.70348e-07
No. of Data Rows : 68032

  Measurements for Transient Analysis

tphl                =  3.42882e-09 targ=  3.13364e-08 trig=  2.79075e-08
tplh                =  4.95436e-09 targ=  1.10677e-07 trig=  1.05723e-07
i_vdd_avg           =  -1.69533e-06 from=  1.00000e-08 to=  3.30003e-07
power_avg_uw        =  2.85761e+00


Total analysis time (seconds) = 0.746602

Total elapsed time (seconds) = 0.899 

Total DRAM available = 16384.000 MB.
DRAM currently available =  113.969 MB.
Maximum ngspice program size =   26.344 MB.
Current ngspice program size =   26.344 MB.

