
Note: Compatibility modes selected: hs a


Circuit: SKY130 library cell nor2_4 A_to_Y__B=0

option SCALE: Scale is set to 1e-06 for instance and model parameters
Doing analysis at TEMP = 102.838240 and TNOM = 27.000000

Using KLU as Direct Linear Solver
 Reference value :  1.90264e-08
 Reference value :  6.64692e-08
 Reference value :  1.11446e-07
 Reference value :  1.61086e-07
 Reference value :  2.08524e-07
 Reference value :  2.61354e-07
 Reference value :  3.11846e-07
No. of Data Rows : 68030

  Measurements for Transient Analysis

tphl                =  6.12124e-10 targ=  2.76180e-08 trig=  2.70059e-08
tplh                =  1.26741e-09 targ=  1.04285e-07 trig=  1.03018e-07
i_vdd_avg           =  -1.16133e-06 from=  1.00000e-08 to=  3.30001e-07
power_avg_uw        =  2.19264e+00


Total analysis time (seconds) = 1.74523

Total elapsed time (seconds) = 1.882 

Total DRAM available = 16384.000 MB.
DRAM currently available =  111.359 MB.
Maximum ngspice program size =   25.531 MB.
Current ngspice program size =   25.531 MB.

