
Note: Compatibility modes selected: hs a


Circuit: SKY130 library cell aoi21_4 A1_to_Y__A2=1,B1=0

option SCALE: Scale is set to 1e-06 for instance and model parameters
Doing analysis at TEMP = 6.526019 and TNOM = 27.000000

Using KLU as Direct Linear Solver
 Reference value :  1.04314e-08
 Reference value :  4.39167e-08
 Reference value :  7.97467e-08
 Reference value :  1.13177e-07
 Reference value :  1.46086e-07
 Reference value :  1.79876e-07
 Reference value :  2.16017e-07
 Reference value :  2.47907e-07
 Reference value :  2.82001e-07
 Reference value :  3.15141e-07
No. of Data Rows : 68032

  Measurements for Transient Analysis

tphl                =  1.39500e-09 targ=  3.10071e-08 trig=  2.96121e-08
tplh                =  3.15482e-09 targ=  1.13991e-07 trig=  1.10836e-07
i_vdd_avg           =  -2.23484e-06 from=  1.00000e-08 to=  3.30001e-07
power_avg_uw        =  4.30937e+00


Total analysis time (seconds) = 2.5457

Total elapsed time (seconds) = 2.708 

Total DRAM available = 16384.000 MB.
DRAM currently available =  155.953 MB.
Maximum ngspice program size =   28.406 MB.
Current ngspice program size =   28.406 MB.

