
Note: Compatibility modes selected: hs a


Circuit: SKY130 library cell inv_4 A_to_Y

option SCALE: Scale is set to 1e-06 for instance and model parameters
Doing analysis at TEMP = 117.035590 and TNOM = 27.000000

Using KLU as Direct Linear Solver
 Reference value :  3.30475e-08
 Reference value :  1.26857e-07
 Reference value :  2.22630e-07
 Reference value :  3.16012e-07
No. of Data Rows : 68030

  Measurements for Transient Analysis

tphl                =  3.99722e-10 targ=  3.02384e-08 trig=  2.98387e-08
tplh                =  1.03839e-09 targ=  1.12555e-07 trig=  1.11516e-07
i_vdd_avg           =  -6.42589e-07 from=  1.00000e-08 to=  3.30002e-07
power_avg_uw        =  1.13454e+00


Total analysis time (seconds) = 0.917966

Total elapsed time (seconds) = 1.072 

Total DRAM available = 16384.000 MB.
DRAM currently available =  168.625 MB.
Maximum ngspice program size =   26.719 MB.
Current ngspice program size =   26.719 MB.

