
Note: Compatibility modes selected: hs a


Circuit: SKY130 library cell oai21_4 A1_to_Y__A2=0,B1=1

option SCALE: Scale is set to 1e-06 for instance and model parameters
Doing analysis at TEMP = 98.798814 and TNOM = 27.000000

Using KLU as Direct Linear Solver
 Reference value :  1.27514e-08
 Reference value :  4.48327e-08
 Reference value :  7.87527e-08
 Reference value :  1.16113e-07
 Reference value :  1.49548e-07
 Reference value :  1.82278e-07
 Reference value :  2.16343e-07
 Reference value :  2.50823e-07
 Reference value :  2.83898e-07
 Reference value :  3.18673e-07
No. of Data Rows : 68032

  Measurements for Transient Analysis

tphl                =  2.37254e-10 targ=  2.60074e-08 trig=  2.57701e-08
tplh                =  5.38194e-10 targ=  9.98485e-08 trig=  9.93103e-08
i_vdd_avg           =  -4.76017e-07 from=  1.00000e-08 to=  3.30003e-07
power_avg_uw        =  9.35295e-01


Total analysis time (seconds) = 2.52821

Total elapsed time (seconds) = 2.679 

Total DRAM available = 16384.000 MB.
DRAM currently available =  141.562 MB.
Maximum ngspice program size =   27.234 MB.
Current ngspice program size =   27.234 MB.

