
Note: Compatibility modes selected: hs a


Circuit: SKY130 library cell oai21_1 A1_to_Y__A2=0,B1=1

option SCALE: Scale is set to 1e-06 for instance and model parameters
Doing analysis at TEMP = -23.549840 and TNOM = 27.000000

Using KLU as Direct Linear Solver
 Reference value :  4.12118e-08
 Reference value :  1.52541e-07
 Reference value :  2.61697e-07
No. of Data Rows : 68032

  Measurements for Transient Analysis

tphl                =  2.39953e-09 targ=  3.03192e-08 trig=  2.79196e-08
tplh                =  5.24621e-09 targ=  1.11005e-07 trig=  1.05759e-07
i_vdd_avg           =  -1.66267e-06 from=  1.00000e-08 to=  3.30001e-07
power_avg_uw        =  3.04361e+00


Total analysis time (seconds) = 0.791765

Total elapsed time (seconds) = 0.955 

Total DRAM available = 16384.000 MB.
DRAM currently available =  116.703 MB.
Maximum ngspice program size =   25.906 MB.
Current ngspice program size =   25.906 MB.

