
Note: Compatibility modes selected: hs a


Circuit: SKY130 library cell aoi21_4 A1_to_Y__A2=1,B1=0

option SCALE: Scale is set to 1e-06 for instance and model parameters
Doing analysis at TEMP = 53.580336 and TNOM = 27.000000

Using KLU as Direct Linear Solver
 Reference value :  1.19664e-08
 Reference value :  4.34360e-08
 Reference value :  7.74760e-08
 Reference value :  1.11634e-07
 Reference value :  1.43074e-07
 Reference value :  1.76124e-07
 Reference value :  2.07876e-07
 Reference value :  2.39121e-07
 Reference value :  2.71024e-07
 Reference value :  3.00864e-07
 Reference value :  3.34024e-07
No. of Data Rows : 68034

  Measurements for Transient Analysis

tphl                =  4.40572e-10 targ=  2.61473e-08 trig=  2.57067e-08
tplh                =  8.23462e-10 targ=  9.99437e-08 trig=  9.91202e-08
i_vdd_avg           =  -4.34059e-07 from=  1.00000e-08 to=  3.30004e-07
power_avg_uw        =  7.80609e-01


Total analysis time (seconds) = 2.67465

Total elapsed time (seconds) = 2.815 

Total DRAM available = 16384.000 MB.
DRAM currently available =   75.141 MB.
Maximum ngspice program size =   25.578 MB.
Current ngspice program size =   25.578 MB.

