
Note: Compatibility modes selected: hs a


Circuit: SKY130 library cell xor2_4 A_to_X__B=0

option SCALE: Scale is set to 1e-06 for instance and model parameters
Doing analysis at TEMP = 49.975146 and TNOM = 27.000000

Using KLU as Direct Linear Solver
 Reference value :  5.51640e-09
 Reference value :  2.32714e-08
 Reference value :  4.29962e-08
 Reference value :  6.15762e-08
 Reference value :  8.12562e-08
 Reference value :  1.00561e-07
 Reference value :  1.21640e-07
 Reference value :  1.41520e-07
 Reference value :  1.62035e-07
 Reference value :  1.79910e-07
 Reference value :  2.00466e-07
 Reference value :  2.20741e-07
 Reference value :  2.41056e-07
 Reference value :  2.60101e-07
 Reference value :  2.79365e-07
 Reference value :  2.99555e-07
 Reference value :  3.19635e-07
 Reference value :  3.39270e-07
No. of Data Rows : 68034

  Measurements for Transient Analysis

tplh                =  9.14921e-10 targ=  2.75643e-08 trig=  2.66493e-08
tphl                =  9.05737e-10 targ=  1.02854e-07 trig=  1.01948e-07
i_vdd_avg           =  -2.80561e-06 from=  1.00000e-08 to=  3.30005e-07
power_avg_uw        =  5.53648e+00


Total analysis time (seconds) = 4.37638

Total elapsed time (seconds) = 4.546 

Total DRAM available = 16384.000 MB.
DRAM currently available =  135.953 MB.
Maximum ngspice program size =   26.328 MB.
Current ngspice program size =   26.328 MB.

