
Note: Compatibility modes selected: hs a


Circuit: SKY130 library cell nand3_4 A_to_Y__B=1,C=1

option SCALE: Scale is set to 1e-06 for instance and model parameters
Doing analysis at TEMP = 99.280970 and TNOM = 27.000000

Using KLU as Direct Linear Solver
 Reference value :  1.47764e-08
 Reference value :  4.90697e-08
 Reference value :  8.48147e-08
 Reference value :  1.18262e-07
 Reference value :  1.53982e-07
 Reference value :  1.87243e-07
 Reference value :  2.21465e-07
 Reference value :  2.55790e-07
 Reference value :  2.88667e-07
 Reference value :  3.22452e-07
No. of Data Rows : 68030

  Measurements for Transient Analysis

tphl                =  6.22690e-10 targ=  2.82963e-08 trig=  2.76736e-08
tplh                =  9.28373e-10 targ=  1.05949e-07 trig=  1.05021e-07
i_vdd_avg           =  -3.01821e-07 from=  1.00000e-08 to=  3.30002e-07
power_avg_uw        =  5.00153e-01


Total analysis time (seconds) = 2.5041

Total elapsed time (seconds) = 2.633 

Total DRAM available = 16384.000 MB.
DRAM currently available =  168.625 MB.
Maximum ngspice program size =   22.609 MB.
Current ngspice program size =   22.609 MB.

