
Note: Compatibility modes selected: hs a


Circuit: SKY130 library cell oai21_1 A1_to_Y__A2=0,B1=1

option SCALE: Scale is set to 1e-06 for instance and model parameters
Doing analysis at TEMP = -1.866628 and TNOM = 27.000000

Using KLU as Direct Linear Solver
 Reference value :  6.14637e-08
 Reference value :  1.77145e-07
 Reference value :  2.98800e-07
No. of Data Rows : 68032

  Measurements for Transient Analysis

tphl                =  2.02086e-09 targ=  3.14489e-08 trig=  2.94281e-08
tplh                =  4.04193e-09 targ=  1.14326e-07 trig=  1.10284e-07
i_vdd_avg           =  -3.64008e-07 from=  1.00000e-08 to=  3.30005e-07
power_avg_uw        =  6.01966e-01


Total analysis time (seconds) = 0.707874

Total elapsed time (seconds) = 0.845 

Total DRAM available = 16384.000 MB.
DRAM currently available =  155.953 MB.
Maximum ngspice program size =   27.688 MB.
Current ngspice program size =   27.688 MB.

