
Note: Compatibility modes selected: hs a


Circuit: SKY130 library cell xor2_4 A_to_X__B=0

option SCALE: Scale is set to 1e-06 for instance and model parameters
Doing analysis at TEMP = -11.317655 and TNOM = 27.000000

Using KLU as Direct Linear Solver
 Reference value :  5.21640e-09
 Reference value :  2.38764e-08
 Reference value :  4.36455e-08
 Reference value :  6.26555e-08
 Reference value :  8.20605e-08
 Reference value :  1.02454e-07
 Reference value :  1.22194e-07
 Reference value :  1.42564e-07
 Reference value :  1.61779e-07
 Reference value :  1.81049e-07
 Reference value :  2.00631e-07
 Reference value :  2.20536e-07
 Reference value :  2.38091e-07
 Reference value :  2.56799e-07
 Reference value :  2.77054e-07
 Reference value :  2.95929e-07
 Reference value :  3.15979e-07
 Reference value :  3.34859e-07
No. of Data Rows : 68034

  Measurements for Transient Analysis

tplh                =  3.90618e-10 targ=  2.48121e-08 trig=  2.44215e-08
tphl                =  3.75354e-10 targ=  9.56399e-08 trig=  9.52646e-08
i_vdd_avg           =  -8.59439e-07 from=  1.00000e-08 to=  3.30004e-07
power_avg_uw        =  1.63819e+00


Total analysis time (seconds) = 4.43276

Total elapsed time (seconds) = 4.600 

Total DRAM available = 16384.000 MB.
DRAM currently available =   99.891 MB.
Maximum ngspice program size =   27.203 MB.
Current ngspice program size =   27.203 MB.

