
Note: Compatibility modes selected: hs a


Circuit: SKY130 library cell xor2_4 A_to_X__B=0

option SCALE: Scale is set to 1e-06 for instance and model parameters
Doing analysis at TEMP = 102.991910 and TNOM = 27.000000

Using KLU as Direct Linear Solver
 Reference value :  5.60140e-09
 Reference value :  2.50225e-08
 Reference value :  4.44052e-08
 Reference value :  6.25302e-08
 Reference value :  8.14352e-08
 Reference value :  9.90802e-08
 Reference value :  1.17753e-07
 Reference value :  1.37033e-07
 Reference value :  1.55563e-07
 Reference value :  1.75543e-07
 Reference value :  1.93230e-07
 Reference value :  2.11565e-07
 Reference value :  2.30210e-07
 Reference value :  2.48880e-07
 Reference value :  2.69053e-07
 Reference value :  2.88688e-07
 Reference value :  3.09538e-07
 Reference value :  3.31383e-07
No. of Data Rows : 68034

  Measurements for Transient Analysis

tplh                =  1.24231e-09 targ=  2.87411e-08 trig=  2.74988e-08
tphl                =  1.21104e-09 targ=  1.05708e-07 trig=  1.04496e-07
i_vdd_avg           =  -1.60327e-06 from=  1.00000e-08 to=  3.30003e-07
power_avg_uw        =  2.64294e+00


Total analysis time (seconds) = 4.44552

Total elapsed time (seconds) = 4.624 

Total DRAM available = 16384.000 MB.
DRAM currently available =  109.547 MB.
Maximum ngspice program size =   27.125 MB.
Current ngspice program size =   27.125 MB.

