
Note: Compatibility modes selected: hs a


Circuit: SKY130 library cell nand2_4 A_to_Y__B=1

option SCALE: Scale is set to 1e-06 for instance and model parameters
Doing analysis at TEMP = 63.240256 and TNOM = 27.000000

Using KLU as Direct Linear Solver
 Reference value :  1.86364e-08
 Reference value :  6.75743e-08
 Reference value :  1.15671e-07
 Reference value :  1.65231e-07
 Reference value :  2.13314e-07
 Reference value :  2.61579e-07
 Reference value :  3.06056e-07
No. of Data Rows : 68030

  Measurements for Transient Analysis

tphl                =  3.66599e-10 targ=  2.69950e-08 trig=  2.66284e-08
tplh                =  7.81841e-10 targ=  1.02667e-07 trig=  1.01885e-07
i_vdd_avg           =  -2.30957e-07 from=  1.00000e-08 to=  3.30001e-07
power_avg_uw        =  3.96005e-01


Total analysis time (seconds) = 1.79986

Total elapsed time (seconds) = 1.946 

Total DRAM available = 16384.000 MB.
DRAM currently available =  146.891 MB.
Maximum ngspice program size =   26.328 MB.
Current ngspice program size =   26.328 MB.

