
Note: Compatibility modes selected: hs a


Circuit: SKY130 library cell inv_1 A_to_Y

option SCALE: Scale is set to 1e-06 for instance and model parameters
Doing analysis at TEMP = 105.777340 and TNOM = 27.000000

Using KLU as Direct Linear Solver
 Reference value :  9.26264e-08
No. of Data Rows : 68032

  Measurements for Transient Analysis

tphl                =  1.66204e-09 targ=  2.71790e-08 trig=  2.55169e-08
tplh                =  2.55192e-09 targ=  1.01103e-07 trig=  9.85508e-08
i_vdd_avg           =  -1.65814e-06 from=  1.00000e-08 to=  3.30000e-07
power_avg_uw        =  2.72699e+00


Total analysis time (seconds) = 0.32689

Total elapsed time (seconds) = 0.475 

Total DRAM available = 16384.000 MB.
DRAM currently available =  216.516 MB.
Maximum ngspice program size =   25.344 MB.
Current ngspice program size =   25.344 MB.

