
Note: Compatibility modes selected: hs a


Circuit: SKY130 library cell oai21_4 A1_to_Y__A2=0,B1=1

option SCALE: Scale is set to 1e-06 for instance and model parameters
Doing analysis at TEMP = 52.093971 and TNOM = 27.000000

Using KLU as Direct Linear Solver
 Reference value :  1.07214e-08
 Reference value :  4.28394e-08
 Reference value :  7.66344e-08
 Reference value :  1.08671e-07
 Reference value :  1.40691e-07
 Reference value :  1.74176e-07
 Reference value :  2.07169e-07
 Reference value :  2.39609e-07
 Reference value :  2.72516e-07
 Reference value :  3.06871e-07
No. of Data Rows : 68030

  Measurements for Transient Analysis

tphl                =  1.80911e-09 targ=  2.93975e-08 trig=  2.75884e-08
tplh                =  3.16053e-09 targ=  1.07926e-07 trig=  1.04765e-07
i_vdd_avg           =  -2.17008e-06 from=  1.00000e-08 to=  3.30001e-07
power_avg_uw        =  3.59571e+00


Total analysis time (seconds) = 2.61561

Total elapsed time (seconds) = 2.772 

Total DRAM available = 16384.000 MB.
DRAM currently available =  137.344 MB.
Maximum ngspice program size =   27.109 MB.
Current ngspice program size =   27.109 MB.

