
Note: Compatibility modes selected: hs a


Circuit: SKY130 library cell nand3_4 A_to_Y__B=1,C=1

option SCALE: Scale is set to 1e-06 for instance and model parameters
Doing analysis at TEMP = -32.825775 and TNOM = 27.000000

Using KLU as Direct Linear Solver
 Reference value :  1.13814e-08
 Reference value :  4.15392e-08
 Reference value :  7.44892e-08
 Reference value :  1.07099e-07
 Reference value :  1.37981e-07
 Reference value :  1.71186e-07
 Reference value :  2.02929e-07
 Reference value :  2.34549e-07
 Reference value :  2.68489e-07
 Reference value :  2.98611e-07
 Reference value :  3.29836e-07
No. of Data Rows : 68030

  Measurements for Transient Analysis

tphl                =  1.20845e-09 targ=  3.00468e-08 trig=  2.88384e-08
tplh                =  2.55277e-09 targ=  1.11068e-07 trig=  1.08515e-07
i_vdd_avg           =  -1.08513e-06 from=  1.00000e-08 to=  3.30001e-07
power_avg_uw        =  1.98935e+00


Total analysis time (seconds) = 2.69907

Total elapsed time (seconds) = 2.863 

Total DRAM available = 16384.000 MB.
DRAM currently available =   80.062 MB.
Maximum ngspice program size =   28.188 MB.
Current ngspice program size =   28.188 MB.

