
Note: Compatibility modes selected: hs a


Circuit: SKY130 library cell nor2_1 A_to_Y__B=0

option SCALE: Scale is set to 1e-06 for instance and model parameters
Doing analysis at TEMP = 69.587776 and TNOM = 27.000000

Using KLU as Direct Linear Solver
 Reference value :  5.88266e-08
 Reference value :  2.15302e-07
No. of Data Rows : 68032

  Measurements for Transient Analysis

tphl                =  4.15443e-10 targ=  2.67225e-08 trig=  2.63071e-08
tplh                =  9.39792e-10 targ=  1.01861e-07 trig=  1.00921e-07
i_vdd_avg           =  -1.13240e-07 from=  1.00000e-08 to=  3.30001e-07
power_avg_uw        =  2.02098e-01


Total analysis time (seconds) = 0.550747

Total elapsed time (seconds) = 0.694 

Total DRAM available = 16384.000 MB.
DRAM currently available =   77.422 MB.
Maximum ngspice program size =   25.297 MB.
Current ngspice program size =   25.297 MB.

