
Note: Compatibility modes selected: hs a


Circuit: SKY130 library cell aoi21_4 A1_to_Y__A2=1,B1=0

option SCALE: Scale is set to 1e-06 for instance and model parameters
Doing analysis at TEMP = -19.197349 and TNOM = 27.000000

Using KLU as Direct Linear Solver
 Reference value :  1.07664e-08
 Reference value :  4.23430e-08
 Reference value :  7.77980e-08
 Reference value :  1.10998e-07
 Reference value :  1.43073e-07
 Reference value :  1.76443e-07
 Reference value :  2.08788e-07
 Reference value :  2.42598e-07
 Reference value :  2.75663e-07
 Reference value :  3.08373e-07
 Reference value :  3.38648e-07
No. of Data Rows : 68032

  Measurements for Transient Analysis

tphl                =  6.20448e-10 targ=  2.78307e-08 trig=  2.72102e-08
tplh                =  1.66637e-09 targ=  1.05297e-07 trig=  1.03631e-07
i_vdd_avg           =  -7.20229e-07 from=  1.00000e-08 to=  3.30003e-07
power_avg_uw        =  1.35922e+00


Total analysis time (seconds) = 2.62889

Total elapsed time (seconds) = 2.781 

Total DRAM available = 16384.000 MB.
DRAM currently available =  124.750 MB.
Maximum ngspice program size =   25.578 MB.
Current ngspice program size =   25.578 MB.

