
Note: Compatibility modes selected: hs a


Circuit: SKY130 library cell nand2_4 A_to_Y__B=1

option SCALE: Scale is set to 1e-06 for instance and model parameters
Doing analysis at TEMP = -33.780702 and TNOM = 27.000000

Using KLU as Direct Linear Solver
 Reference value :  1.57864e-08
 Reference value :  6.68485e-08
 Reference value :  1.14119e-07
 Reference value :  1.61449e-07
 Reference value :  2.07758e-07
 Reference value :  2.53943e-07
 Reference value :  3.01694e-07
No. of Data Rows : 68032

  Measurements for Transient Analysis

tphl                =  7.38886e-10 targ=  2.77844e-08 trig=  2.70455e-08
tplh                =  1.68046e-09 targ=  1.04817e-07 trig=  1.03136e-07
i_vdd_avg           =  -8.72630e-07 from=  1.00000e-08 to=  3.30004e-07
power_avg_uw        =  1.62232e+00


Total analysis time (seconds) = 1.79333

Total elapsed time (seconds) = 1.949 

Total DRAM available = 16384.000 MB.
DRAM currently available =  116.703 MB.
Maximum ngspice program size =   25.297 MB.
Current ngspice program size =   25.297 MB.

