
Note: Compatibility modes selected: hs a


Circuit: SKY130 library cell xor2_1 A_to_X__B=0

option SCALE: Scale is set to 1e-06 for instance and model parameters
Doing analysis at TEMP = -5.862598 and TNOM = 27.000000

Using KLU as Direct Linear Solver
 Reference value :  2.67775e-08
 Reference value :  1.00084e-07
 Reference value :  1.70251e-07
 Reference value :  2.41154e-07
 Reference value :  3.11991e-07
No. of Data Rows : 68030

  Measurements for Transient Analysis

tplh                =  6.65477e-10 targ=  2.69138e-08 trig=  2.62484e-08
tphl                =  9.09443e-10 targ=  1.01654e-07 trig=  1.00745e-07
i_vdd_avg           =  -4.02750e-07 from=  1.00000e-08 to=  3.30001e-07
power_avg_uw        =  7.84532e-01


Total analysis time (seconds) = 1.19826

Total elapsed time (seconds) = 1.345 

Total DRAM available = 16384.000 MB.
DRAM currently available =  135.953 MB.
Maximum ngspice program size =   26.312 MB.
Current ngspice program size =   26.312 MB.

