
Note: Compatibility modes selected: hs a


Circuit: SKY130 library cell inv_4 A_to_Y

option SCALE: Scale is set to 1e-06 for instance and model parameters
Doing analysis at TEMP = -16.705404 and TNOM = 27.000000

Using KLU as Direct Linear Solver
 Reference value :  3.66062e-08
 Reference value :  1.27510e-07
 Reference value :  2.21856e-07
 Reference value :  3.17290e-07
No. of Data Rows : 68034

  Measurements for Transient Analysis

tphl                =  4.98339e-10 targ=  2.58252e-08 trig=  2.53268e-08
tplh                =  1.01953e-09 targ=  9.90000e-08 trig=  9.79805e-08
i_vdd_avg           =  -1.24133e-06 from=  1.00000e-08 to=  3.30005e-07
power_avg_uw        =  2.34395e+00


Total analysis time (seconds) = 0.919063

Total elapsed time (seconds) = 1.064 

Total DRAM available = 16384.000 MB.
DRAM currently available =  137.344 MB.
Maximum ngspice program size =   25.797 MB.
Current ngspice program size =   25.797 MB.

