
Note: Compatibility modes selected: hs a


Circuit: SKY130 library cell inv_1 A_to_Y

option SCALE: Scale is set to 1e-06 for instance and model parameters
Doing analysis at TEMP = 53.302152 and TNOM = 27.000000

Using KLU as Direct Linear Solver
 Reference value :  1.14720e-07
No. of Data Rows : 68032

  Measurements for Transient Analysis

tphl                =  2.28405e-09 targ=  2.99135e-08 trig=  2.76294e-08
tplh                =  3.64874e-09 targ=  1.08537e-07 trig=  1.04888e-07
i_vdd_avg           =  -2.09638e-06 from=  1.00000e-08 to=  3.30000e-07
power_avg_uw        =  3.90203e+00


Total analysis time (seconds) = 0.323892

Total elapsed time (seconds) = 0.455 

Total DRAM available = 16384.000 MB.
DRAM currently available =   80.062 MB.
Maximum ngspice program size =   26.125 MB.
Current ngspice program size =   26.125 MB.

