
Note: Compatibility modes selected: hs a


Circuit: SKY130 library cell oai21_4 A1_to_Y__A2=0,B1=1

option SCALE: Scale is set to 1e-06 for instance and model parameters
Doing analysis at TEMP = 41.792058 and TNOM = 27.000000

Using KLU as Direct Linear Solver
 Reference value :  1.14064e-08
 Reference value :  4.54053e-08
 Reference value :  8.07003e-08
 Reference value :  1.15983e-07
 Reference value :  1.53953e-07
 Reference value :  1.98285e-07
 Reference value :  2.45045e-07
 Reference value :  2.92973e-07
No. of Data Rows : 68034

  Measurements for Transient Analysis

tphl                =  1.48702e-09 targ=  3.09309e-08 trig=  2.94439e-08
tplh                =  2.99122e-09 targ=  1.13323e-07 trig=  1.10332e-07
i_vdd_avg           =  -1.50799e-06 from=  1.00000e-08 to=  3.30003e-07
power_avg_uw        =  2.67413e+00


Total analysis time (seconds) = 2.10071

Total elapsed time (seconds) = 2.244 

Total DRAM available = 16384.000 MB.
DRAM currently available =  167.078 MB.
Maximum ngspice program size =   26.625 MB.
Current ngspice program size =   26.625 MB.

