
Note: Compatibility modes selected: hs a


Circuit: SKY130 library cell inv_1 A_to_Y

option SCALE: Scale is set to 1e-06 for instance and model parameters
Doing analysis at TEMP = 79.888658 and TNOM = 27.000000

Using KLU as Direct Linear Solver
 Reference value :  1.14446e-07
No. of Data Rows : 68032

  Measurements for Transient Analysis

tphl                =  3.96520e-10 targ=  2.72186e-08 trig=  2.68220e-08
tplh                =  9.09699e-10 targ=  1.03376e-07 trig=  1.02466e-07
i_vdd_avg           =  -1.50953e-07 from=  1.00000e-08 to=  3.30001e-07
power_avg_uw        =  2.77731e-01


Total analysis time (seconds) = 0.318574

Total elapsed time (seconds) = 0.453 

Total DRAM available = 16384.000 MB.
DRAM currently available =  147.969 MB.
Maximum ngspice program size =   24.906 MB.
Current ngspice program size =   24.906 MB.

