
Note: Compatibility modes selected: hs a


Circuit: SKY130 library cell mux2_1 A0_to_X__A1=0,S=0

option SCALE: Scale is set to 1e-06 for instance and model parameters
Doing analysis at TEMP = 1.617733 and TNOM = 27.000000

Using KLU as Direct Linear Solver
 Reference value :  2.42675e-08
 Reference value :  8.59097e-08
 Reference value :  1.44427e-07
 Reference value :  2.03575e-07
 Reference value :  2.64435e-07
 Reference value :  3.22697e-07
No. of Data Rows : 68030

  Measurements for Transient Analysis

tplh                =  1.39602e-09 targ=  2.90746e-08 trig=  2.76786e-08
tphl                =  2.43598e-09 targ=  1.07472e-07 trig=  1.05036e-07
i_vdd_avg           =  -4.36072e-07 from=  1.00000e-08 to=  3.30002e-07
power_avg_uw        =  7.19627e-01


Total analysis time (seconds) = 1.44093

Total elapsed time (seconds) = 1.583 

Total DRAM available = 16384.000 MB.
DRAM currently available =   96.906 MB.
Maximum ngspice program size =   26.156 MB.
Current ngspice program size =   26.156 MB.

