
Note: Compatibility modes selected: hs a


Circuit: SKY130 library cell mux2_1 A0_to_X__A1=0,S=0

option SCALE: Scale is set to 1e-06 for instance and model parameters
Doing analysis at TEMP = 46.433825 and TNOM = 27.000000

Using KLU as Direct Linear Solver
 Reference value :  2.39064e-08
 Reference value :  8.47046e-08
 Reference value :  1.44847e-07
 Reference value :  2.05455e-07
 Reference value :  2.61317e-07
 Reference value :  3.20547e-07
No. of Data Rows : 68030

  Measurements for Transient Analysis

tplh                =  1.41531e-09 targ=  2.55914e-08 trig=  2.41761e-08
tphl                =  9.04037e-10 targ=  9.54323e-08 trig=  9.45282e-08
i_vdd_avg           =  -1.98170e-06 from=  1.00000e-08 to=  3.30002e-07
power_avg_uw        =  3.82370e+00


Total analysis time (seconds) = 1.44675

Total elapsed time (seconds) = 1.588 

Total DRAM available = 16384.000 MB.
DRAM currently available =  124.891 MB.
Maximum ngspice program size =   24.766 MB.
Current ngspice program size =   24.766 MB.

