
Note: Compatibility modes selected: hs a


Circuit: SKY130 library cell mux2_4 A0_to_X__A1=0,S=0

option SCALE: Scale is set to 1e-06 for instance and model parameters
Doing analysis at TEMP = 60.066481 and TNOM = 27.000000

Using KLU as Direct Linear Solver
 Reference value :  1.26814e-08
 Reference value :  5.52180e-08
 Reference value :  9.56680e-08
 Reference value :  1.39874e-07
 Reference value :  1.81094e-07
 Reference value :  2.22343e-07
 Reference value :  2.64389e-07
 Reference value :  3.05684e-07
No. of Data Rows : 68032

  Measurements for Transient Analysis

tplh                =  8.07958e-10 targ=  2.64032e-08 trig=  2.55953e-08
tphl                =  1.11098e-09 targ=  9.98968e-08 trig=  9.87858e-08
i_vdd_avg           =  -1.96750e-06 from=  1.00000e-08 to=  3.30004e-07
power_avg_uw        =  3.77152e+00


Total analysis time (seconds) = 2.06874

Total elapsed time (seconds) = 2.227 

Total DRAM available = 16384.000 MB.
DRAM currently available =  116.703 MB.
Maximum ngspice program size =   24.156 MB.
Current ngspice program size =   24.156 MB.

