
Note: Compatibility modes selected: hs a


Circuit: SKY130 library cell oai21_1 A1_to_Y__A2=0,B1=1

option SCALE: Scale is set to 1e-06 for instance and model parameters
Doing analysis at TEMP = 122.722760 and TNOM = 27.000000

Using KLU as Direct Linear Solver
 Reference value :  4.22398e-08
 Reference value :  1.52482e-07
 Reference value :  2.63522e-07
No. of Data Rows : 68030

  Measurements for Transient Analysis

tphl                =  1.48735e-09 targ=  2.67785e-08 trig=  2.52912e-08
tplh                =  2.56948e-09 targ=  1.00443e-07 trig=  9.78735e-08
i_vdd_avg           =  -1.22252e-06 from=  1.00000e-08 to=  3.30002e-07
power_avg_uw        =  2.15655e+00


Total analysis time (seconds) = 0.762535

Total elapsed time (seconds) = 0.909 

Total DRAM available = 16384.000 MB.
DRAM currently available =  124.750 MB.
Maximum ngspice program size =   27.328 MB.
Current ngspice program size =   27.328 MB.

