
Note: Compatibility modes selected: hs a


Circuit: SKY130 library cell aoi21_1 A1_to_Y__A2=1,B1=0

option SCALE: Scale is set to 1e-06 for instance and model parameters
Doing analysis at TEMP = 82.636966 and TNOM = 27.000000

Using KLU as Direct Linear Solver
 Reference value :  4.40140e-08
 Reference value :  1.54286e-07
 Reference value :  2.65041e-07
No. of Data Rows : 68030

  Measurements for Transient Analysis

tphl                =  6.63569e-10 targ=  2.66743e-08 trig=  2.60108e-08
tplh                =  1.06795e-09 targ=  1.01100e-07 trig=  1.00032e-07
i_vdd_avg           =  -1.86122e-07 from=  1.00000e-08 to=  3.30001e-07
power_avg_uw        =  3.31697e-01


Total analysis time (seconds) = 0.781479

Total elapsed time (seconds) = 0.914 

Total DRAM available = 16384.000 MB.
DRAM currently available =   80.062 MB.
Maximum ngspice program size =   23.781 MB.
Current ngspice program size =   23.781 MB.

