
Note: Compatibility modes selected: hs a


Circuit: SKY130 library cell nand2_4 A_to_Y__B=1

option SCALE: Scale is set to 1e-06 for instance and model parameters
Doing analysis at TEMP = 28.380728 and TNOM = 27.000000

Using KLU as Direct Linear Solver
 Reference value :  1.84764e-08
 Reference value :  6.88735e-08
 Reference value :  1.15610e-07
 Reference value :  1.60975e-07
 Reference value :  2.09499e-07
 Reference value :  2.57244e-07
 Reference value :  3.04715e-07
No. of Data Rows : 68032

  Measurements for Transient Analysis

tphl                =  9.99327e-10 targ=  2.94123e-08 trig=  2.84130e-08
tplh                =  1.98016e-09 targ=  1.09219e-07 trig=  1.07239e-07
i_vdd_avg           =  -1.34853e-06 from=  1.00000e-08 to=  3.30005e-07
power_avg_uw        =  2.53364e+00


Total analysis time (seconds) = 1.79997

Total elapsed time (seconds) = 1.947 

Total DRAM available = 16384.000 MB.
DRAM currently available =   93.781 MB.
Maximum ngspice program size =   26.578 MB.
Current ngspice program size =   26.578 MB.

