
Note: Compatibility modes selected: hs a


Circuit: SKY130 library cell nor2_1 A_to_Y__B=0

option SCALE: Scale is set to 1e-06 for instance and model parameters
Doing analysis at TEMP = -35.076996 and TNOM = 27.000000

Using KLU as Direct Linear Solver
 Reference value :  6.48692e-08
 Reference value :  2.19779e-07
No. of Data Rows : 68030

  Measurements for Transient Analysis

tphl                =  2.56684e-09 targ=  3.14302e-08 trig=  2.88633e-08
tplh                =  6.39989e-09 targ=  1.14990e-07 trig=  1.08590e-07
i_vdd_avg           =  -2.04190e-06 from=  1.00000e-08 to=  3.30001e-07
power_avg_uw        =  3.77783e+00


Total analysis time (seconds) = 0.556939

Total elapsed time (seconds) = 0.685 

Total DRAM available = 16384.000 MB.
DRAM currently available =  157.531 MB.
Maximum ngspice program size =   25.594 MB.
Current ngspice program size =   25.594 MB.

