
Note: Compatibility modes selected: hs a


Circuit: SKY130 library cell aoi21_1 A1_to_Y__A2=1,B1=0

option SCALE: Scale is set to 1e-06 for instance and model parameters
Doing analysis at TEMP = 3.167768 and TNOM = 27.000000

Using KLU as Direct Linear Solver
 Reference value :  4.38621e-08
 Reference value :  1.62132e-07
 Reference value :  2.73077e-07
No. of Data Rows : 68032

  Measurements for Transient Analysis

tphl                =  1.35027e-09 targ=  2.69626e-08 trig=  2.56123e-08
tplh                =  2.70571e-09 targ=  1.01543e-07 trig=  9.88369e-08
i_vdd_avg           =  -1.15548e-06 from=  1.00000e-08 to=  3.30002e-07
power_avg_uw        =  2.16125e+00


Total analysis time (seconds) = 0.757916

Total elapsed time (seconds) = 0.897 

Total DRAM available = 16384.000 MB.
DRAM currently available =   78.656 MB.
Maximum ngspice program size =   27.109 MB.
Current ngspice program size =   27.109 MB.

