
Note: Compatibility modes selected: hs a


Circuit: SKY130 library cell mux2_4 A0_to_X__A1=0,S=0

option SCALE: Scale is set to 1e-06 for instance and model parameters
Doing analysis at TEMP = 77.054177 and TNOM = 27.000000

Using KLU as Direct Linear Solver
 Reference value :  1.31764e-08
 Reference value :  5.42066e-08
 Reference value :  9.68666e-08
 Reference value :  1.39551e-07
 Reference value :  1.81126e-07
 Reference value :  2.20312e-07
 Reference value :  2.64577e-07
 Reference value :  3.04421e-07
No. of Data Rows : 68032

  Measurements for Transient Analysis

tplh                =  1.45887e-09 targ=  2.97459e-08 trig=  2.82870e-08
tphl                =  2.21519e-09 targ=  1.09076e-07 trig=  1.06861e-07
i_vdd_avg           =  -8.39662e-07 from=  1.00000e-08 to=  3.30001e-07
power_avg_uw        =  1.36549e+00


Total analysis time (seconds) = 2.058

Total elapsed time (seconds) = 2.218 

Total DRAM available = 16384.000 MB.
DRAM currently available =   93.781 MB.
Maximum ngspice program size =   26.672 MB.
Current ngspice program size =   26.672 MB.

