
Note: Compatibility modes selected: hs a


Circuit: SKY130 library cell xor2_1 A_to_X__B=0

option SCALE: Scale is set to 1e-06 for instance and model parameters
Doing analysis at TEMP = 113.651260 and TNOM = 27.000000

Using KLU as Direct Linear Solver
 Reference value :  2.99381e-08
 Reference value :  1.03219e-07
 Reference value :  1.73309e-07
 Reference value :  2.46683e-07
 Reference value :  3.20189e-07
No. of Data Rows : 68032

  Measurements for Transient Analysis

tplh                =  2.12429e-09 targ=  2.74346e-08 trig=  2.53103e-08
tphl                =  9.91004e-10 targ=  9.89219e-08 trig=  9.79309e-08
i_vdd_avg           =  -1.07682e-06 from=  1.00000e-08 to=  3.30004e-07
power_avg_uw        =  1.85745e+00


Total analysis time (seconds) = 1.17476

Total elapsed time (seconds) = 1.317 

Total DRAM available = 16384.000 MB.
DRAM currently available =  130.922 MB.
Maximum ngspice program size =   26.859 MB.
Current ngspice program size =   26.859 MB.

