
Note: Compatibility modes selected: hs a


Circuit: SKY130 library cell oai21_1 A1_to_Y__A2=0,B1=1

option SCALE: Scale is set to 1e-06 for instance and model parameters
Doing analysis at TEMP = 24.743969 and TNOM = 27.000000

Using KLU as Direct Linear Solver
 Reference value :  4.93657e-08
 Reference value :  1.69044e-07
 Reference value :  2.84254e-07
No. of Data Rows : 68034

  Measurements for Transient Analysis

tphl                =  7.11538e-10 targ=  2.55781e-08 trig=  2.48666e-08
tplh                =  1.48783e-09 targ=  9.80876e-08 trig=  9.65998e-08
i_vdd_avg           =  -7.52062e-07 from=  1.00000e-08 to=  3.30004e-07
power_avg_uw        =  1.44998e+00


Total analysis time (seconds) = 0.739741

Total elapsed time (seconds) = 0.879 

Total DRAM available = 16384.000 MB.
DRAM currently available =  146.891 MB.
Maximum ngspice program size =   24.328 MB.
Current ngspice program size =   24.328 MB.

