
Note: Compatibility modes selected: hs a


Circuit: SKY130 library cell xor2_1 A_to_X__B=0

option SCALE: Scale is set to 1e-06 for instance and model parameters
Doing analysis at TEMP = 94.835730 and TNOM = 27.000000

Using KLU as Direct Linear Solver
 Reference value :  2.97643e-08
 Reference value :  1.05626e-07
 Reference value :  1.84298e-07
 Reference value :  2.63991e-07
No. of Data Rows : 68030

  Measurements for Transient Analysis

tplh                =  3.86350e-09 targ=  2.85744e-08 trig=  2.47109e-08
tphl                =  1.27441e-09 targ=  9.74071e-08 trig=  9.61326e-08
i_vdd_avg           =  -1.60047e-06 from=  1.00000e-08 to=  3.30001e-07
power_avg_uw        =  2.59414e+00


Total analysis time (seconds) = 1.07172

Total elapsed time (seconds) = 1.215 

Total DRAM available = 16384.000 MB.
DRAM currently available =  135.703 MB.
Maximum ngspice program size =   27.594 MB.
Current ngspice program size =   27.594 MB.

