
Note: Compatibility modes selected: hs a


Circuit: SKY130 library cell nor2_4 A_to_Y__B=0

option SCALE: Scale is set to 1e-06 for instance and model parameters
Doing analysis at TEMP = 90.666792 and TNOM = 27.000000

Using KLU as Direct Linear Solver
 Reference value :  2.01364e-08
 Reference value :  6.84312e-08
 Reference value :  1.20225e-07
 Reference value :  1.69275e-07
 Reference value :  2.17456e-07
 Reference value :  2.65660e-07
 Reference value :  3.12660e-07
No. of Data Rows : 68034

  Measurements for Transient Analysis

tphl                =  3.13329e-10 targ=  2.60852e-08 trig=  2.57718e-08
tplh                =  6.67356e-10 targ=  9.99828e-08 trig=  9.93155e-08
i_vdd_avg           =  -4.43748e-07 from=  1.00000e-08 to=  3.30005e-07
power_avg_uw        =  8.15075e-01


Total analysis time (seconds) = 1.76577

Total elapsed time (seconds) = 1.905 

Total DRAM available = 16384.000 MB.
DRAM currently available =  135.953 MB.
Maximum ngspice program size =   24.594 MB.
Current ngspice program size =   24.594 MB.

