
Note: Compatibility modes selected: hs a


Circuit: SKY130 library cell nand2_1 A_to_Y__B=1

option SCALE: Scale is set to 1e-06 for instance and model parameters
Doing analysis at TEMP = -10.249057 and TNOM = 27.000000

Using KLU as Direct Linear Solver
 Reference value :  6.35040e-08
 Reference value :  2.28209e-07
No. of Data Rows : 68030

  Measurements for Transient Analysis

tphl                =  1.78892e-09 targ=  2.80647e-08 trig=  2.62757e-08
tplh                =  2.59944e-09 targ=  1.03427e-07 trig=  1.00827e-07
i_vdd_avg           =  -1.33607e-06 from=  1.00000e-08 to=  3.30000e-07
power_avg_uw        =  2.43634e+00


Total analysis time (seconds) = 0.526421

Total elapsed time (seconds) = 0.673 

Total DRAM available = 16384.000 MB.
DRAM currently available =   74.266 MB.
Maximum ngspice program size =   25.047 MB.
Current ngspice program size =   25.047 MB.

