
Note: Compatibility modes selected: hs a


Circuit: SKY130 library cell aoi21_1 A1_to_Y__A2=1,B1=0

option SCALE: Scale is set to 1e-06 for instance and model parameters
Doing analysis at TEMP = 31.983436 and TNOM = 27.000000

Using KLU as Direct Linear Solver
 Reference value :  5.28883e-08
 Reference value :  1.67084e-07
 Reference value :  2.89859e-07
No. of Data Rows : 68032

  Measurements for Transient Analysis

tphl                =  2.63373e-09 targ=  3.16166e-08 trig=  2.89829e-08
tplh                =  4.53478e-09 targ=  1.13484e-07 trig=  1.08949e-07
i_vdd_avg           =  -6.90691e-07 from=  1.00000e-08 to=  3.30004e-07
power_avg_uw        =  1.13221e+00


Total analysis time (seconds) = 0.724218

Total elapsed time (seconds) = 0.858 

Total DRAM available = 16384.000 MB.
DRAM currently available =  155.312 MB.
Maximum ngspice program size =   24.828 MB.
Current ngspice program size =   24.828 MB.

