
Note: Compatibility modes selected: hs a


Circuit: SKY130 library cell aoi21_4 A1_to_Y__A2=1,B1=0

option SCALE: Scale is set to 1e-06 for instance and model parameters
Doing analysis at TEMP = 86.759541 and TNOM = 27.000000

Using KLU as Direct Linear Solver
 Reference value :  1.43064e-08
 Reference value :  4.68741e-08
 Reference value :  7.91791e-08
 Reference value :  1.13156e-07
 Reference value :  1.45861e-07
 Reference value :  1.78036e-07
 Reference value :  2.10584e-07
 Reference value :  2.43599e-07
 Reference value :  2.77601e-07
 Reference value :  3.10766e-07
No. of Data Rows : 68030

  Measurements for Transient Analysis

tphl                =  3.39921e-10 targ=  2.46382e-08 trig=  2.42983e-08
tplh                =  5.89071e-10 targ=  9.54840e-08 trig=  9.48949e-08
i_vdd_avg           =  -1.17139e-06 from=  1.00000e-08 to=  3.30001e-07
power_avg_uw        =  2.14612e+00


Total analysis time (seconds) = 2.58278

Total elapsed time (seconds) = 2.725 

Total DRAM available = 16384.000 MB.
DRAM currently available =  168.203 MB.
Maximum ngspice program size =   25.812 MB.
Current ngspice program size =   25.812 MB.

