
Note: Compatibility modes selected: hs a


Circuit: SKY130 library cell xor2_1 A_to_X__B=0

option SCALE: Scale is set to 1e-06 for instance and model parameters
Doing analysis at TEMP = 19.008405 and TNOM = 27.000000

Using KLU as Direct Linear Solver
 Reference value :  2.51975e-08
 Reference value :  9.58751e-08
 Reference value :  1.65063e-07
 Reference value :  2.34815e-07
 Reference value :  3.08548e-07
No. of Data Rows : 68034

  Measurements for Transient Analysis

tplh                =  1.61628e-09 targ=  3.09851e-08 trig=  2.93688e-08
tphl                =  2.00789e-09 targ=  1.12114e-07 trig=  1.10106e-07
i_vdd_avg           =  -6.10179e-07 from=  1.00000e-08 to=  3.30003e-07
power_avg_uw        =  1.06214e+00


Total analysis time (seconds) = 1.21408

Total elapsed time (seconds) = 1.367 

Total DRAM available = 16384.000 MB.
DRAM currently available =   80.062 MB.
Maximum ngspice program size =   27.188 MB.
Current ngspice program size =   27.188 MB.

