
Note: Compatibility modes selected: hs a


Circuit: SKY130 library cell inv_1 A_to_Y

option SCALE: Scale is set to 1e-06 for instance and model parameters
Doing analysis at TEMP = -26.977043 and TNOM = 27.000000

Using KLU as Direct Linear Solver
 Reference value :  1.36711e-07
No. of Data Rows : 68030

  Measurements for Transient Analysis

tphl                =  1.68947e-09 targ=  2.98378e-08 trig=  2.81483e-08
tplh                =  3.46183e-09 targ=  1.09907e-07 trig=  1.06445e-07
i_vdd_avg           =  -1.46922e-06 from=  1.00000e-08 to=  3.30001e-07
power_avg_uw        =  2.89340e+00


Total analysis time (seconds) = 0.307188

Total elapsed time (seconds) = 0.441 

Total DRAM available = 16384.000 MB.
DRAM currently available =  168.625 MB.
Maximum ngspice program size =   24.266 MB.
Current ngspice program size =   24.266 MB.

