
Note: Compatibility modes selected: hs a


Circuit: SKY130 library cell nor2_4 A_to_Y__B=0

option SCALE: Scale is set to 1e-06 for instance and model parameters
Doing analysis at TEMP = -19.965549 and TNOM = 27.000000

Using KLU as Direct Linear Solver
 Reference value :  2.25564e-08
 Reference value :  7.07480e-08
 Reference value :  1.16137e-07
 Reference value :  1.67092e-07
 Reference value :  2.16288e-07
 Reference value :  2.68257e-07
 Reference value :  3.15867e-07
No. of Data Rows : 68032

  Measurements for Transient Analysis

tphl                =  1.42122e-10 targ=  2.41824e-08 trig=  2.40403e-08
tplh                =  7.31695e-10 targ=  9.48525e-08 trig=  9.41208e-08
i_vdd_avg           =  -1.94607e-06 from=  1.00000e-08 to=  3.30002e-07
power_avg_uw        =  3.78360e+00


Total analysis time (seconds) = 1.75178

Total elapsed time (seconds) = 1.876 

Total DRAM available = 16384.000 MB.
DRAM currently available =  168.625 MB.
Maximum ngspice program size =   26.062 MB.
Current ngspice program size =   26.062 MB.

