
Note: Compatibility modes selected: hs a


Circuit: SKY130 library cell nand3_1 A_to_Y__B=1,C=1

option SCALE: Scale is set to 1e-06 for instance and model parameters
Doing analysis at TEMP = 40.365581 and TNOM = 27.000000

Using KLU as Direct Linear Solver
 Reference value :  3.78952e-08
 Reference value :  1.48848e-07
 Reference value :  2.62655e-07
No. of Data Rows : 68034

  Measurements for Transient Analysis

tphl                =  4.26411e-09 targ=  3.25155e-08 trig=  2.82513e-08
tplh                =  4.71505e-09 targ=  1.11469e-07 trig=  1.06754e-07
i_vdd_avg           =  -2.13039e-06 from=  1.00000e-08 to=  3.30003e-07
power_avg_uw        =  3.66723e+00


Total analysis time (seconds) = 0.776305

Total elapsed time (seconds) = 0.929 

Total DRAM available = 16384.000 MB.
DRAM currently available =  114.641 MB.
Maximum ngspice program size =   26.797 MB.
Current ngspice program size =   26.797 MB.

