
Note: Compatibility modes selected: hs a


Circuit: SKY130 library cell nand3_4 A_to_Y__B=1,C=1

option SCALE: Scale is set to 1e-06 for instance and model parameters
Doing analysis at TEMP = 83.090976 and TNOM = 27.000000

Using KLU as Direct Linear Solver
 Reference value :  1.16164e-08
 Reference value :  4.42467e-08
 Reference value :  7.58667e-08
 Reference value :  1.08782e-07
 Reference value :  1.43246e-07
 Reference value :  1.74806e-07
 Reference value :  2.06562e-07
 Reference value :  2.37832e-07
 Reference value :  2.70692e-07
 Reference value :  3.02406e-07
 Reference value :  3.36671e-07
No. of Data Rows : 68032

  Measurements for Transient Analysis

tphl                =  1.99971e-09 targ=  3.14718e-08 trig=  2.94721e-08
tplh                =  2.56121e-09 targ=  1.12978e-07 trig=  1.10416e-07
i_vdd_avg           =  -1.95205e-06 from=  1.00000e-08 to=  3.30001e-07
power_avg_uw        =  3.45746e+00


Total analysis time (seconds) = 2.64893

Total elapsed time (seconds) = 2.796 

Total DRAM available = 16384.000 MB.
DRAM currently available =   99.891 MB.
Maximum ngspice program size =   27.156 MB.
Current ngspice program size =   27.156 MB.

