
Note: Compatibility modes selected: hs a


Circuit: SKY130 library cell oai21_4 A1_to_Y__A2=0,B1=1

option SCALE: Scale is set to 1e-06 for instance and model parameters
Doing analysis at TEMP = 76.834607 and TNOM = 27.000000

Using KLU as Direct Linear Solver
 Reference value :  1.03964e-08
 Reference value :  4.30158e-08
 Reference value :  7.42558e-08
 Reference value :  1.04664e-07
 Reference value :  1.36609e-07
 Reference value :  1.67944e-07
 Reference value :  2.00726e-07
 Reference value :  2.31246e-07
 Reference value :  2.62341e-07
 Reference value :  2.92409e-07
 Reference value :  3.24644e-07
No. of Data Rows : 68034

  Measurements for Transient Analysis

tphl                =  7.97218e-10 targ=  2.69114e-08 trig=  2.61142e-08
tplh                =  1.36359e-09 targ=  1.01706e-07 trig=  1.00343e-07
i_vdd_avg           =  -9.54648e-07 from=  1.00000e-08 to=  3.30004e-07
power_avg_uw        =  1.65941e+00


Total analysis time (seconds) = 2.72501

Total elapsed time (seconds) = 2.892 

Total DRAM available = 16384.000 MB.
DRAM currently available =   96.906 MB.
Maximum ngspice program size =   26.188 MB.
Current ngspice program size =   26.188 MB.

