
Note: Compatibility modes selected: hs a


Circuit: SKY130 library cell mux2_1 A0_to_X__A1=0,S=0

option SCALE: Scale is set to 1e-06 for instance and model parameters
Doing analysis at TEMP = -24.874160 and TNOM = 27.000000

Using KLU as Direct Linear Solver
 Reference value :  2.91486e-08
 Reference value :  9.40186e-08
 Reference value :  1.59840e-07
 Reference value :  2.22039e-07
 Reference value :  2.80550e-07
No. of Data Rows : 68032

  Measurements for Transient Analysis

tplh                =  1.04396e-09 targ=  2.71520e-08 trig=  2.61080e-08
tphl                =  1.44862e-09 targ=  1.01773e-07 trig=  1.00324e-07
i_vdd_avg           =  -9.47992e-07 from=  1.00000e-08 to=  3.30005e-07
power_avg_uw        =  1.81195e+00


Total analysis time (seconds) = 1.37169

Total elapsed time (seconds) = 1.499 

Total DRAM available = 16384.000 MB.
DRAM currently available =  168.203 MB.
Maximum ngspice program size =   24.391 MB.
Current ngspice program size =   24.391 MB.

