
Note: Compatibility modes selected: hs a


Circuit: SKY130 library cell xor2_1 A_to_X__B=0

option SCALE: Scale is set to 1e-06 for instance and model parameters
Doing analysis at TEMP = 57.673141 and TNOM = 27.000000

Using KLU as Direct Linear Solver
 Reference value :  2.54275e-08
 Reference value :  9.94754e-08
 Reference value :  1.72058e-07
 Reference value :  2.44235e-07
 Reference value :  3.16983e-07
No. of Data Rows : 68034

  Measurements for Transient Analysis

tplh                =  2.42416e-09 targ=  2.96531e-08 trig=  2.72290e-08
tphl                =  1.42424e-09 targ=  1.05111e-07 trig=  1.03687e-07
i_vdd_avg           =  -1.34260e-06 from=  1.00000e-08 to=  3.30003e-07
power_avg_uw        =  2.42937e+00


Total analysis time (seconds) = 1.18676

Total elapsed time (seconds) = 1.334 

Total DRAM available = 16384.000 MB.
DRAM currently available =   99.891 MB.
Maximum ngspice program size =   23.375 MB.
Current ngspice program size =   23.375 MB.

