
Note: Compatibility modes selected: hs a


Circuit: SKY130 library cell inv_1 A_to_Y

option SCALE: Scale is set to 1e-06 for instance and model parameters
Doing analysis at TEMP = 30.711666 and TNOM = 27.000000

Using KLU as Direct Linear Solver
 Reference value :  1.10533e-07
No. of Data Rows : 68034

  Measurements for Transient Analysis

tphl                =  7.66830e-10 targ=  2.55056e-08 trig=  2.47388e-08
tplh                =  1.37889e-09 targ=  9.75952e-08 trig=  9.62163e-08
i_vdd_avg           =  -1.01576e-06 from=  1.00000e-08 to=  3.30003e-07
power_avg_uw        =  1.78880e+00


Total analysis time (seconds) = 0.347822

Total elapsed time (seconds) = 0.482 

Total DRAM available = 16384.000 MB.
DRAM currently available =   99.891 MB.
Maximum ngspice program size =   24.891 MB.
Current ngspice program size =   24.891 MB.

