
Note: Compatibility modes selected: hs a


Circuit: SKY130 library cell xor2_4 A_to_X__B=0

option SCALE: Scale is set to 1e-06 for instance and model parameters
Doing analysis at TEMP = -39.329375 and TNOM = 27.000000

Using KLU as Direct Linear Solver
 Reference value :  6.32640e-09
 Reference value :  2.55725e-08
 Reference value :  4.54596e-08
 Reference value :  6.41196e-08
 Reference value :  8.28196e-08
 Reference value :  1.02440e-07
 Reference value :  1.22002e-07
 Reference value :  1.42242e-07
 Reference value :  1.60667e-07
 Reference value :  1.80632e-07
 Reference value :  1.99375e-07
 Reference value :  2.18890e-07
 Reference value :  2.38000e-07
 Reference value :  2.57945e-07
 Reference value :  2.78242e-07
 Reference value :  2.97047e-07
 Reference value :  3.16742e-07
 Reference value :  3.35812e-07
No. of Data Rows : 68030

  Measurements for Transient Analysis

tplh                =  1.40936e-09 targ=  3.02804e-08 trig=  2.88710e-08
tphl                =  2.43431e-09 targ=  1.11047e-07 trig=  1.08613e-07
i_vdd_avg           =  -1.31041e-06 from=  1.00000e-08 to=  3.30002e-07
power_avg_uw        =  2.24601e+00


Total analysis time (seconds) = 4.42582

Total elapsed time (seconds) = 4.592 

Total DRAM available = 16384.000 MB.
DRAM currently available =   80.062 MB.
Maximum ngspice program size =   27.375 MB.
Current ngspice program size =   27.375 MB.

