
Note: Compatibility modes selected: hs a


Circuit: SKY130 library cell nand2_1 A_to_Y__B=1

option SCALE: Scale is set to 1e-06 for instance and model parameters
Doing analysis at TEMP = 37.738684 and TNOM = 27.000000

Using KLU as Direct Linear Solver
 Reference value :  5.50905e-08
 Reference value :  2.28936e-07
No. of Data Rows : 68034

  Measurements for Transient Analysis

tphl                =  3.68176e-09 targ=  3.20483e-08 trig=  2.83665e-08
tplh                =  4.80452e-09 targ=  1.11904e-07 trig=  1.07100e-07
i_vdd_avg           =  -1.88134e-06 from=  1.00000e-08 to=  3.30004e-07
power_avg_uw        =  3.15185e+00


Total analysis time (seconds) = 0.519571

Total elapsed time (seconds) = 0.672 

Total DRAM available = 16384.000 MB.
DRAM currently available =  168.625 MB.
Maximum ngspice program size =   26.797 MB.
Current ngspice program size =   26.797 MB.

