
Note: Compatibility modes selected: hs a


Circuit: SKY130 library cell mux2_4 A0_to_X__A1=0,S=0

option SCALE: Scale is set to 1e-06 for instance and model parameters
Doing analysis at TEMP = 114.983400 and TNOM = 27.000000

Using KLU as Direct Linear Solver
 Reference value :  1.91264e-08
 Reference value :  6.49442e-08
 Reference value :  1.08001e-07
 Reference value :  1.51961e-07
 Reference value :  1.94769e-07
 Reference value :  2.40354e-07
 Reference value :  2.82411e-07
 Reference value :  3.27911e-07
No. of Data Rows : 68030

  Measurements for Transient Analysis

tplh                =  1.08935e-09 targ=  2.73502e-08 trig=  2.62608e-08
tphl                =  1.35354e-09 targ=  1.02136e-07 trig=  1.00783e-07
i_vdd_avg           =  -2.47395e-06 from=  1.00000e-08 to=  3.30001e-07
power_avg_uw        =  4.51731e+00


Total analysis time (seconds) = 1.94705

Total elapsed time (seconds) = 2.091 

Total DRAM available = 16384.000 MB.
DRAM currently available =  155.953 MB.
Maximum ngspice program size =   29.688 MB.
Current ngspice program size =   29.688 MB.

