
Note: Compatibility modes selected: hs a


Circuit: SKY130 library cell nor2_1 A_to_Y__B=0

option SCALE: Scale is set to 1e-06 for instance and model parameters
Doing analysis at TEMP = 17.030559 and TNOM = 27.000000

Using KLU as Direct Linear Solver
 Reference value :  6.34888e-08
 Reference value :  2.22824e-07
No. of Data Rows : 68030

  Measurements for Transient Analysis

tphl                =  9.57428e-10 targ=  2.62131e-08 trig=  2.52557e-08
tplh                =  2.38831e-09 targ=  1.00155e-07 trig=  9.77670e-08
i_vdd_avg           =  -6.80036e-07 from=  1.00000e-08 to=  3.30000e-07
power_avg_uw        =  1.13546e+00


Total analysis time (seconds) = 0.54363

Total elapsed time (seconds) = 0.684 

Total DRAM available = 16384.000 MB.
DRAM currently available =  121.938 MB.
Maximum ngspice program size =   27.078 MB.
Current ngspice program size =   27.078 MB.

