
Note: No compatibility mode selected!


Circuit: NAND2 seed characterization sample 4411042

Doing analysis at TEMP = 63.278900 and TNOM = 27.000000

Using SPARSE 1.3 as Direct Linear Solver

Initial Transient Solution
--------------------------

Node                                   Voltage
----                                   -------
vdd                                    1.67038
in                                           0
out                                    1.67038
nmid                                  0.033925
vin#branch                                   0
vdd#branch                        -1.86372e-12

 Reference value :  4.58473e-08
 Reference value :  1.06274e-07
No. of Data Rows : 60044

  Measurements for Transient Analysis

tphl                =  3.10831e-10 targ=  2.54896e-09 trig=  2.23813e-09
tplh                =  1.99836e-10 targ=  2.29142e-08 trig=  2.27144e-08
i_vdd_avg           =  -1.43172e-06 from=  5.00000e-09 to=  1.10002e-07
power_avg_uw        =  2.39151e+00


Total analysis time (seconds) = 0.475759

Total elapsed time (seconds) = 0.550 

Total DRAM available = 16384.000 MB.
DRAM currently available =  235.719 MB.
Maximum ngspice program size =   13.953 MB.
Current ngspice program size =   13.953 MB.

