
Note: No compatibility mode selected!


Circuit: NOR2 seed characterization sample 4411007

Doing analysis at TEMP = 50.931600 and TNOM = 27.000000

Using SPARSE 1.3 as Direct Linear Solver

Initial Transient Solution
--------------------------

Node                                   Voltage
----                                   -------
vdd                                      1.806
in                                           0
out                                      1.806
pmid                                     1.806
vin#branch                                   0
vdd#branch                        -4.02552e-12

 Reference value :  4.66393e-08
 Reference value :  1.07258e-07
No. of Data Rows : 60044

  Measurements for Transient Analysis

tphl                =  1.10600e-10 targ=  2.13873e-09 trig=  2.02813e-09
tplh                =  4.08985e-10 targ=  2.24934e-08 trig=  2.20844e-08
i_vdd_avg           =  -2.97389e-06 from=  5.00000e-09 to=  1.10002e-07
power_avg_uw        =  5.37085e+00


Total analysis time (seconds) = 0.476029

Total elapsed time (seconds) = 0.545 

Total DRAM available = 16384.000 MB.
DRAM currently available =  261.344 MB.
Maximum ngspice program size =   12.562 MB.
Current ngspice program size =   11.781 MB.

