
Note: No compatibility mode selected!


Circuit: INV seed characterization sample 4411037

Doing analysis at TEMP = 40.977900 and TNOM = 27.000000

Using SPARSE 1.3 as Direct Linear Solver

Initial Transient Solution
--------------------------

Node                                   Voltage
----                                   -------
vdd                                    1.91977
in                                           0
out                                    1.91977
vin#branch                                   0
vdd#branch                        -2.12889e-12

 Reference value :  7.24257e-08
No. of Data Rows : 60044

  Measurements for Transient Analysis

tphl                =  5.38970e-11 targ=  2.09907e-09 trig=  2.04517e-09
tplh                =  7.15700e-11 targ=  2.22071e-08 trig=  2.21355e-08
i_vdd_avg           =  -9.32075e-07 from=  5.00000e-09 to=  1.10002e-07
power_avg_uw        =  1.78937e+00


Total analysis time (seconds) = 0.295859

Total elapsed time (seconds) = 0.366 

Total DRAM available = 16384.000 MB.
DRAM currently available =  225.906 MB.
Maximum ngspice program size =   12.562 MB.
Current ngspice program size =   11.875 MB.

