
Note: No compatibility mode selected!


Circuit: XOR2 seed characterization sample 4411048

Doing analysis at TEMP = 99.489900 and TNOM = 27.000000

Using SPARSE 1.3 as Direct Linear Solver

Initial Transient Solution
--------------------------

Node                                   Voltage
----                                   -------
vdd                                    1.79187
in                                           0
b                                      1.79187
abar                                   1.79187
bbar                               6.14523e-09
out                                    1.79187
vb#branch                                    0
vin#branch                         5.20042e-12
vdd#branch                        -1.67511e-11

 Reference value :  2.63863e-08
 Reference value :  6.14926e-08
 Reference value :  9.87526e-08
No. of Data Rows : 60044

  Measurements for Transient Analysis

tphl                =  9.48296e-10 targ=  3.19012e-09 trig=  2.24182e-09
tplh                =  1.14261e-09 targ=  2.38681e-08 trig=  2.27255e-08
i_vdd_avg           =  -4.84240e-06 from=  5.00000e-09 to=  1.10000e-07
power_avg_uw        =  8.67694e+00


Total analysis time (seconds) = 0.800007

Total elapsed time (seconds) = 0.873 

Total DRAM available = 16384.000 MB.
DRAM currently available =  228.109 MB.
Maximum ngspice program size =   12.578 MB.
Current ngspice program size =   12.031 MB.

