
Note: No compatibility mode selected!


Circuit: XOR2 seed characterization sample 4411004

Doing analysis at TEMP = 23.530400 and TNOM = 27.000000

Using SPARSE 1.3 as Direct Linear Solver

Initial Transient Solution
--------------------------

Node                                   Voltage
----                                   -------
vdd                                    1.77323
in                                           0
b                                      1.77323
abar                                   1.77323
bbar                               1.53646e-09
out                                    1.77323
vb#branch                                    0
vin#branch                         1.82695e-12
vdd#branch                        -1.07769e-11

 Reference value :  2.68864e-08
 Reference value :  6.27117e-08
 Reference value :  1.00280e-07
No. of Data Rows : 60041

  Measurements for Transient Analysis

tphl                =  2.66239e-10 targ=  2.49859e-09 trig=  2.23235e-09
tplh                =  3.82724e-10 targ=  2.30798e-08 trig=  2.26970e-08
i_vdd_avg           =  -2.34086e-06 from=  5.00000e-09 to=  1.10000e-07
power_avg_uw        =  4.15088e+00


Total analysis time (seconds) = 0.790407

Total elapsed time (seconds) = 0.861 

Total DRAM available = 16384.000 MB.
DRAM currently available =  294.484 MB.
Maximum ngspice program size =   12.578 MB.
Current ngspice program size =   12.031 MB.

