
Note: No compatibility mode selected!


Circuit: XOR2 seed characterization sample 4411020

Doing analysis at TEMP = 37.047300 and TNOM = 27.000000

Using SPARSE 1.3 as Direct Linear Solver

Initial Transient Solution
--------------------------

Node                                   Voltage
----                                   -------
vdd                                    1.91317
in                                           0
b                                      1.91317
abar                                   1.91317
bbar                               1.16438e-09
out                                    1.91317
vb#branch                                    0
vin#branch                         2.14473e-12
vdd#branch                        -1.19337e-11

 Reference value :  2.31703e-08
 Reference value :  5.76237e-08
 Reference value :  9.39917e-08
No. of Data Rows : 60041

  Measurements for Transient Analysis

tphl                =  3.48760e-10 targ=  2.48509e-09 trig=  2.13633e-09
tplh                =  3.88625e-10 targ=  2.27976e-08 trig=  2.24090e-08
i_vdd_avg           =  -7.67446e-06 from=  5.00000e-09 to=  1.10000e-07
power_avg_uw        =  1.46825e+01


Total analysis time (seconds) = 0.813966

Total elapsed time (seconds) = 0.905 

Total DRAM available = 16384.000 MB.
DRAM currently available =  276.375 MB.
Maximum ngspice program size =   14.516 MB.
Current ngspice program size =   14.516 MB.

