
Note: No compatibility mode selected!


Circuit: NAND2 seed characterization sample 4411018

Doing analysis at TEMP = -18.462000 and TNOM = 27.000000

Using SPARSE 1.3 as Direct Linear Solver

Initial Transient Solution
--------------------------

Node                                   Voltage
----                                   -------
vdd                                    1.93581
in                                           0
out                                    1.93581
nmid                                0.00022618
vin#branch                                   0
vdd#branch                        -1.94647e-12

 Reference value :  4.44222e-08
 Reference value :  1.04557e-07
No. of Data Rows : 60047

  Measurements for Transient Analysis

tphl                =  3.73576e-10 targ=  2.55620e-09 trig=  2.18262e-09
tplh                =  1.93449e-10 targ=  2.27413e-08 trig=  2.25479e-08
i_vdd_avg           =  -6.79647e-06 from=  5.00000e-09 to=  1.10001e-07
power_avg_uw        =  1.31567e+01


Total analysis time (seconds) = 0.482099

Total elapsed time (seconds) = 0.559 

Total DRAM available = 16384.000 MB.
DRAM currently available =  276.375 MB.
Maximum ngspice program size =   14.625 MB.
Current ngspice program size =   14.625 MB.

