
Note: No compatibility mode selected!


Circuit: NAND2 seed characterization sample 4411030

Doing analysis at TEMP = 40.960300 and TNOM = 27.000000

Using SPARSE 1.3 as Direct Linear Solver

Initial Transient Solution
--------------------------

Node                                   Voltage
----                                   -------
vdd                                    1.86857
in                                           0
out                                    1.86857
nmid                                 0.0269194
vin#branch                                   0
vdd#branch                        -1.97802e-12

 Reference value :  4.73412e-08
 Reference value :  1.09345e-07
No. of Data Rows : 60044

  Measurements for Transient Analysis

tphl                =  2.37079e-10 targ=  2.36116e-09 trig=  2.12408e-09
tplh                =  1.18934e-10 targ=  2.24912e-08 trig=  2.23722e-08
i_vdd_avg           =  -3.79355e-06 from=  5.00000e-09 to=  1.10001e-07
power_avg_uw        =  7.08851e+00


Total analysis time (seconds) = 0.466893

Total elapsed time (seconds) = 0.536 

Total DRAM available = 16384.000 MB.
DRAM currently available =  242.891 MB.
Maximum ngspice program size =   12.562 MB.
Current ngspice program size =   11.625 MB.

