
Note: No compatibility mode selected!


Circuit: NAND2 seed characterization sample 4411046

Doing analysis at TEMP = 79.839700 and TNOM = 27.000000

Using SPARSE 1.3 as Direct Linear Solver

Initial Transient Solution
--------------------------

Node                                   Voltage
----                                   -------
vdd                                     1.8326
in                                           0
out                                     1.8326
nmid                                 0.0454133
vin#branch                                   0
vdd#branch                        -2.47136e-12

 Reference value :  4.62345e-08
 Reference value :  1.08026e-07
No. of Data Rows : 60044

  Measurements for Transient Analysis

tphl                =  3.61329e-10 targ=  2.42409e-09 trig=  2.06276e-09
tplh                =  1.32232e-10 targ=  2.23205e-08 trig=  2.21883e-08
i_vdd_avg           =  -4.42371e-06 from=  5.00000e-09 to=  1.10000e-07
power_avg_uw        =  8.10689e+00


Total analysis time (seconds) = 0.468433

Total elapsed time (seconds) = 0.541 

Total DRAM available = 16384.000 MB.
DRAM currently available =  228.109 MB.
Maximum ngspice program size =   12.656 MB.
Current ngspice program size =   12.656 MB.

