
Note: No compatibility mode selected!


Circuit: NOR2 seed characterization sample 4411031

Doing analysis at TEMP = 84.035800 and TNOM = 27.000000

Using SPARSE 1.3 as Direct Linear Solver

Initial Transient Solution
--------------------------

Node                                   Voltage
----                                   -------
vdd                                    1.67614
in                                           0
out                                    1.67614
pmid                                   1.67614
vin#branch                                   0
vdd#branch                        -1.08348e-11

 Reference value :  4.65487e-08
 Reference value :  1.07256e-07
No. of Data Rows : 60044

  Measurements for Transient Analysis

tphl                =  1.87221e-10 targ=  2.35709e-09 trig=  2.16987e-09
tplh                =  6.71601e-10 targ=  2.31812e-08 trig=  2.25096e-08
i_vdd_avg           =  -4.75112e-06 from=  5.00000e-09 to=  1.10000e-07
power_avg_uw        =  7.96354e+00


Total analysis time (seconds) = 0.476948

Total elapsed time (seconds) = 0.546 

Total DRAM available = 16384.000 MB.
DRAM currently available =  242.891 MB.
Maximum ngspice program size =   12.562 MB.
Current ngspice program size =   11.969 MB.

