
Note: No compatibility mode selected!


Circuit: NOR2 seed characterization sample 4411023

Doing analysis at TEMP = 13.884800 and TNOM = 27.000000

Using SPARSE 1.3 as Direct Linear Solver

Initial Transient Solution
--------------------------

Node                                   Voltage
----                                   -------
vdd                                    1.79078
in                                           0
out                                    1.79078
pmid                                   1.79078
vin#branch                                   0
vdd#branch                        -3.62469e-12

 Reference value :  4.69719e-08
 Reference value :  1.07845e-07
No. of Data Rows : 60041

  Measurements for Transient Analysis

tphl                =  8.80869e-11 targ=  2.17256e-09 trig=  2.08447e-09
tplh                =  3.72286e-10 targ=  2.26257e-08 trig=  2.22534e-08
i_vdd_avg           =  -1.80954e-06 from=  5.00000e-09 to=  1.10001e-07
power_avg_uw        =  3.24049e+00


Total analysis time (seconds) = 0.47425

Total elapsed time (seconds) = 0.543 

Total DRAM available = 16384.000 MB.
DRAM currently available =  201.656 MB.
Maximum ngspice program size =   12.562 MB.
Current ngspice program size =   11.594 MB.

