
Note: No compatibility mode selected!


Circuit: NOR2 seed characterization sample 4411015

Doing analysis at TEMP = 56.147400 and TNOM = 27.000000

Using SPARSE 1.3 as Direct Linear Solver

Initial Transient Solution
--------------------------

Node                                   Voltage
----                                   -------
vdd                                    1.94235
in                                           0
out                                    1.94235
pmid                                   1.94235
vin#branch                                   0
vdd#branch                        -4.38456e-12

 Reference value :  4.64733e-08
 Reference value :  1.06434e-07
No. of Data Rows : 60044

  Measurements for Transient Analysis

tphl                =  1.88703e-10 targ=  2.37585e-09 trig=  2.18714e-09
tplh                =  6.34818e-10 targ=  2.31962e-08 trig=  2.25614e-08
i_vdd_avg           =  -2.90432e-06 from=  5.00000e-09 to=  1.10002e-07
power_avg_uw        =  5.64120e+00


Total analysis time (seconds) = 0.480735

Total elapsed time (seconds) = 0.550 

Total DRAM available = 16384.000 MB.
DRAM currently available =  269.641 MB.
Maximum ngspice program size =   12.562 MB.
Current ngspice program size =   11.656 MB.

