
Note: No compatibility mode selected!


Circuit: XOR2 seed characterization sample 4411032

Doing analysis at TEMP = 61.487200 and TNOM = 27.000000

Using SPARSE 1.3 as Direct Linear Solver

Initial Transient Solution
--------------------------

Node                                   Voltage
----                                   -------
vdd                                    1.68798
in                                           0
b                                      1.68798
abar                                   1.68798
bbar                               2.71524e-09
out                                    1.68798
vb#branch                                    0
vin#branch                         2.23641e-12
vdd#branch                        -1.11379e-11

 Reference value :  2.65803e-08
 Reference value :  6.16216e-08
 Reference value :  9.87716e-08
No. of Data Rows : 60041

  Measurements for Transient Analysis

tphl                =  4.80605e-10 targ=  2.65592e-09 trig=  2.17531e-09
tplh                =  7.46904e-10 targ=  2.32728e-08 trig=  2.25259e-08
i_vdd_avg           =  -3.50782e-06 from=  5.00000e-09 to=  1.10000e-07
power_avg_uw        =  5.92114e+00


Total analysis time (seconds) = 0.800469

Total elapsed time (seconds) = 0.871 

Total DRAM available = 16384.000 MB.
DRAM currently available =  242.891 MB.
Maximum ngspice program size =   13.078 MB.
Current ngspice program size =   13.078 MB.

