
Note: No compatibility mode selected!


Circuit: NAND2 seed characterization sample 4411006

Doing analysis at TEMP = -3.635330 and TNOM = 27.000000

Using SPARSE 1.3 as Direct Linear Solver

Initial Transient Solution
--------------------------

Node                                   Voltage
----                                   -------
vdd                                    1.96692
in                                           0
out                                    1.96692
nmid                               0.000992442
vin#branch                                   0
vdd#branch                        -1.97975e-12

 Reference value :  4.77318e-08
 Reference value :  1.09429e-07
No. of Data Rows : 60041

  Measurements for Transient Analysis

tphl                =  3.35122e-10 targ=  2.57854e-09 trig=  2.24342e-09
tplh                =  2.06625e-10 targ=  2.29369e-08 trig=  2.27303e-08
i_vdd_avg           =  -4.16479e-06 from=  5.00000e-09 to=  1.10001e-07
power_avg_uw        =  8.19181e+00


Total analysis time (seconds) = 0.46771

Total elapsed time (seconds) = 0.537 

Total DRAM available = 16384.000 MB.
DRAM currently available =  261.344 MB.
Maximum ngspice program size =   12.562 MB.
Current ngspice program size =   11.812 MB.

