
Note: No compatibility mode selected!


Circuit: NOR2 seed characterization sample 6410056

Doing analysis at TEMP = 95.402200 and TNOM = 27.000000

Using SPARSE 1.3 as Direct Linear Solver

Initial Transient Solution
--------------------------

Node                                   Voltage
----                                   -------
vdd                                    1.89174
in                                           0
out                                    1.89174
pmid                                   1.89174
vin#branch                                   0
vdd#branch                        -1.46223e-11

 Reference value :  1.91324e-08
 Reference value :  7.13798e-08
No. of Data Rows : 60047

  Measurements for Transient Analysis

tphl                =  7.08644e-11 targ=  2.13856e-09 trig=  2.06770e-09
tplh                =  2.55272e-10 targ=  2.24584e-08 trig=  2.22031e-08
i_vdd_avg           =  -1.53873e-06 from=  5.00000e-09 to=  1.10002e-07
power_avg_uw        =  2.91088e+00


Total analysis time (seconds) = 0.576676

Total elapsed time (seconds) = 0.702 

Total DRAM available = 16384.000 MB.
DRAM currently available =  104.250 MB.
Maximum ngspice program size =   17.875 MB.
Current ngspice program size =   17.875 MB.

