
Note: No compatibility mode selected!


Circuit: NAND2 seed characterization sample 6410024

Doing analysis at TEMP = 68.145100 and TNOM = 27.000000

Using SPARSE 1.3 as Direct Linear Solver

Initial Transient Solution
--------------------------

Node                                   Voltage
----                                   -------
vdd                                    1.71333
in                                           0
out                                    1.71333
nmid                                 0.0405183
vin#branch                                   0
vdd#branch                         -2.0937e-12

 Reference value :  2.63582e-08
 Reference value :  6.73642e-08
 Reference value :  1.08822e-07
No. of Data Rows : 60044

  Measurements for Transient Analysis

tphl                =  2.31810e-10 targ=  2.42861e-09 trig=  2.19680e-09
tplh                =  1.55211e-10 targ=  2.27456e-08 trig=  2.25904e-08
i_vdd_avg           =  -1.64868e-06 from=  5.00000e-09 to=  1.10000e-07
power_avg_uw        =  2.82473e+00


Total analysis time (seconds) = 0.735857

Total elapsed time (seconds) = 0.827 

Total DRAM available = 16384.000 MB.
DRAM currently available =  104.250 MB.
Maximum ngspice program size =   16.469 MB.
Current ngspice program size =   16.469 MB.

