
Note: No compatibility mode selected!


Circuit: INV seed characterization sample 6410020

Doing analysis at TEMP = 39.011200 and TNOM = 27.000000

Using SPARSE 1.3 as Direct Linear Solver

Initial Transient Solution
--------------------------

Node                                   Voltage
----                                   -------
vdd                                    1.70045
in                                           0
out                                    1.70045
vin#branch                                   0
vdd#branch                        -1.84315e-12

 Reference value :  4.04482e-08
 Reference value :  1.04592e-07
No. of Data Rows : 60041

  Measurements for Transient Analysis

tphl                =  2.68255e-10 targ=  2.47357e-09 trig=  2.20531e-09
tplh                =  3.64970e-10 targ=  2.29809e-08 trig=  2.26159e-08
i_vdd_avg           =  -3.71150e-06 from=  5.00000e-09 to=  1.10000e-07
power_avg_uw        =  6.31122e+00


Total analysis time (seconds) = 0.467773

Total elapsed time (seconds) = 0.564 

Total DRAM available = 16384.000 MB.
DRAM currently available =   88.109 MB.
Maximum ngspice program size =   16.078 MB.
Current ngspice program size =   16.078 MB.

