
Note: No compatibility mode selected!


Circuit: INV seed characterization sample 6410023

Doing analysis at TEMP = 4.840010 and TNOM = 27.000000

Using SPARSE 1.3 as Direct Linear Solver

Initial Transient Solution
--------------------------

Node                                   Voltage
----                                   -------
vdd                                    1.71477
in                                           0
out                                    1.71477
vin#branch                                   0
vdd#branch                        -1.73154e-12

 Reference value :  3.95333e-08
 Reference value :  1.04493e-07
No. of Data Rows : 60047

  Measurements for Transient Analysis

tphl                =  2.55092e-10 targ=  2.43267e-09 trig=  2.17758e-09
tplh                =  3.66233e-10 targ=  2.28990e-08 trig=  2.25327e-08
i_vdd_avg           =  -4.49805e-06 from=  5.00000e-09 to=  1.10001e-07
power_avg_uw        =  7.71313e+00


Total analysis time (seconds) = 0.462788

Total elapsed time (seconds) = 0.564 

Total DRAM available = 16384.000 MB.
DRAM currently available =   77.750 MB.
Maximum ngspice program size =   17.016 MB.
Current ngspice program size =   17.016 MB.

