
Note: No compatibility mode selected!


Circuit: NAND2 seed characterization sample 6410041

Doing analysis at TEMP = 81.473900 and TNOM = 27.000000

Using SPARSE 1.3 as Direct Linear Solver

Initial Transient Solution
--------------------------

Node                                   Voltage
----                                   -------
vdd                                    1.81265
in                                           0
out                                    1.81265
nmid                                 0.0412605
vin#branch                                   0
vdd#branch                        -2.13948e-12

 Reference value :  1.81643e-08
 Reference value :  7.13775e-08
No. of Data Rows : 60047

  Measurements for Transient Analysis

tphl                =  5.35347e-10 targ=  2.57798e-09 trig=  2.04264e-09
tplh                =  1.91008e-10 targ=  2.23189e-08 trig=  2.21279e-08
i_vdd_avg           =  -3.17438e-06 from=  5.00000e-09 to=  1.10002e-07
power_avg_uw        =  5.75404e+00


Total analysis time (seconds) = 0.574385

Total elapsed time (seconds) = 0.704 

Total DRAM available = 16384.000 MB.
DRAM currently available =  104.250 MB.
Maximum ngspice program size =   14.734 MB.
Current ngspice program size =   14.734 MB.

