
Note: Compatibility modes selected: hs a


Circuit: SKY130 library cell nor2_1 A_to_Y__B=0

option SCALE: Scale is set to 1e-06 for instance and model parameters
Doing analysis at TEMP = 60.444543 and TNOM = 27.000000

Using KLU as Direct Linear Solver
 Reference value :  0.00000e+00
 Reference value :  8.13549e-08
 Reference value :  1.60827e-07
 Reference value :  2.41380e-07
 Reference value :  3.22952e-07
No. of Data Rows : 68030

  Measurements for Transient Analysis

tphl                =  2.40391e-10 targ=  2.57066e-08 trig=  2.54662e-08
tplh                =  9.30064e-10 targ=  9.93287e-08 trig=  9.83986e-08
i_vdd_avg           =  -3.79905e-07 from=  1.00000e-08 to=  3.30002e-07
power_avg_uw        =  6.41726e-01


Total analysis time (seconds) = 1.09417

Total elapsed time (seconds) = 1.357 

Total DRAM available = 16384.000 MB.
DRAM currently available =   78.125 MB.
Maximum ngspice program size =   25.625 MB.
Current ngspice program size =   25.625 MB.

