
Note: Compatibility modes selected: hs a


Circuit: SKY130 library cell xor2_1 A_to_X__B=0

option SCALE: Scale is set to 1e-06 for instance and model parameters
Doing analysis at TEMP = -28.611111 and TNOM = 27.000000

Using KLU as Direct Linear Solver
 Reference value :  0.00000e+00
 Reference value :  3.67977e-08
 Reference value :  7.40327e-08
 Reference value :  1.11393e-07
 Reference value :  1.48228e-07
 Reference value :  1.85208e-07
 Reference value :  2.21923e-07
 Reference value :  2.58068e-07
 Reference value :  2.94798e-07
 Reference value :  3.31418e-07
No. of Data Rows : 68032

  Measurements for Transient Analysis

tplh                =  2.29457e-09 targ=  2.76221e-08 trig=  2.53276e-08
tphl                =  9.43337e-10 targ=  9.89261e-08 trig=  9.79827e-08
i_vdd_avg           =  -2.34604e-06 from=  1.00000e-08 to=  3.30003e-07
power_avg_uw        =  4.15265e+00


Total analysis time (seconds) = 2.39985

Total elapsed time (seconds) = 2.658 

Total DRAM available = 16384.000 MB.
DRAM currently available =   90.891 MB.
Maximum ngspice program size =   25.766 MB.
Current ngspice program size =   25.766 MB.

