
Note: Compatibility modes selected: hs a


Circuit: SKY130 library cell inv_1 A_to_Y

option SCALE: Scale is set to 1e-06 for instance and model parameters
Doing analysis at TEMP = -16.994530 and TNOM = 27.000000

Using KLU as Direct Linear Solver
 Reference value :  1.05564e-08
 Reference value :  1.46666e-07
 Reference value :  2.78961e-07
No. of Data Rows : 68032

  Measurements for Transient Analysis

tphl                =  7.98598e-10 targ=  2.79207e-08 trig=  2.71221e-08
tplh                =  2.42365e-09 targ=  1.05790e-07 trig=  1.03366e-07
i_vdd_avg           =  -2.33221e-06 from=  1.00000e-08 to=  3.30001e-07
power_avg_uw        =  4.56677e+00


Total analysis time (seconds) = 0.663676

Total elapsed time (seconds) = 0.897 

Total DRAM available = 16384.000 MB.
DRAM currently available =  136.641 MB.
Maximum ngspice program size =   25.312 MB.
Current ngspice program size =   25.312 MB.

