
Note: Compatibility modes selected: hs a


Circuit: SKY130 library cell oai21_4 A1_to_Y__A2=0,B1=1

option SCALE: Scale is set to 1e-06 for instance and model parameters
Doing analysis at TEMP = 93.340856 and TNOM = 27.000000

Using KLU as Direct Linear Solver
 Reference value :  0.00000e+00
 Reference value :  1.66664e-08
 Reference value :  3.29943e-08
 Reference value :  4.94143e-08
 Reference value :  6.56593e-08
 Reference value :  8.23793e-08
 Reference value :  9.90043e-08
 Reference value :  1.15271e-07
 Reference value :  1.31696e-07
 Reference value :  1.48231e-07
 Reference value :  1.64801e-07
 Reference value :  1.81361e-07
 Reference value :  1.97554e-07
 Reference value :  2.13759e-07
 Reference value :  2.30179e-07
 Reference value :  2.46534e-07
 Reference value :  2.62834e-07
 Reference value :  2.79081e-07
 Reference value :  2.95601e-07
 Reference value :  3.11911e-07
 Reference value :  3.28386e-07
No. of Data Rows : 68030

  Measurements for Transient Analysis

tphl                =  3.79139e-10 targ=  2.82376e-08 trig=  2.78584e-08
tplh                =  1.60340e-09 targ=  1.07179e-07 trig=  1.05575e-07
i_vdd_avg           =  -2.44619e-06 from=  1.00000e-08 to=  3.30001e-07
power_avg_uw        =  4.13152e+00


Total analysis time (seconds) = 5.31918

Total elapsed time (seconds) = 5.596 

Total DRAM available = 16384.000 MB.
DRAM currently available =   70.094 MB.
Maximum ngspice program size =   28.859 MB.
Current ngspice program size =   28.859 MB.

