Note: Starting dynamic gmin stepping
Note: Dynamic gmin stepping completed

Note: Compatibility modes selected: hs a


Circuit: SKY130 library cell mux2_1 A0_to_X__A1=0,S=0

option SCALE: Scale is set to 1e-06 for instance and model parameters
Doing analysis at TEMP = 24.668152 and TNOM = 27.000000

Using KLU as Direct Linear Solver
 Reference value :  0.00000e+00
 Reference value :  3.06675e-08
 Reference value :  6.20073e-08
 Reference value :  9.26623e-08
 Reference value :  1.23242e-07
 Reference value :  1.53612e-07
 Reference value :  1.84463e-07
 Reference value :  2.14947e-07
 Reference value :  2.45717e-07
 Reference value :  2.76832e-07
 Reference value :  3.08002e-07
 Reference value :  3.39447e-07
No. of Data Rows : 68032

  Measurements for Transient Analysis

tplh                =  -5.13398e-12 targ=  2.93348e-08 trig=  2.93399e-08
tphl                =  1.52103e-09 targ=  1.11541e-07 trig=  1.10020e-07
i_vdd_avg           =  -7.17240e-07 from=  1.00000e-08 to=  3.30002e-07
power_avg_uw        =  1.23672e+00


Total analysis time (seconds) = 2.8526

Total elapsed time (seconds) = 3.113 

Total DRAM available = 16384.000 MB.
DRAM currently available =   84.875 MB.
Maximum ngspice program size =   27.188 MB.
Current ngspice program size =   27.188 MB.

