
Note: Compatibility modes selected: hs a


Circuit: SKY130 library cell aoi21_1 A1_to_Y__A2=1,B1=0

option SCALE: Scale is set to 1e-06 for instance and model parameters
Doing analysis at TEMP = -26.951724 and TNOM = 27.000000

Using KLU as Direct Linear Solver
 Reference value :  0.00000e+00
 Reference value :  5.79216e-08
 Reference value :  1.15231e-07
 Reference value :  1.72896e-07
 Reference value :  2.31107e-07
 Reference value :  2.88526e-07
No. of Data Rows : 68032

  Measurements for Transient Analysis

tphl                =  9.39856e-10 targ=  2.78094e-08 trig=  2.68695e-08
tplh                =  2.82127e-09 targ=  1.05430e-07 trig=  1.02609e-07
i_vdd_avg           =  -1.74104e-06 from=  1.00000e-08 to=  3.30001e-07
power_avg_uw        =  3.25357e+00


Total analysis time (seconds) = 1.54752

Total elapsed time (seconds) = 1.815 

Total DRAM available = 16384.000 MB.
DRAM currently available =   90.891 MB.
Maximum ngspice program size =   26.656 MB.
Current ngspice program size =   26.656 MB.

