
Note: Compatibility modes selected: hs a


Circuit: SKY130 library cell nor2_1 A_to_Y__B=0

option SCALE: Scale is set to 1e-06 for instance and model parameters
Doing analysis at TEMP = -1.702914 and TNOM = 27.000000

Using KLU as Direct Linear Solver
 Reference value :  0.00000e+00
 Reference value :  8.04603e-08
 Reference value :  1.61398e-07
 Reference value :  2.41085e-07
 Reference value :  3.19908e-07
No. of Data Rows : 68034

  Measurements for Transient Analysis

tphl                =  8.69982e-10 targ=  2.95214e-08 trig=  2.86514e-08
tplh                =  3.73549e-09 targ=  1.11690e-07 trig=  1.07954e-07
i_vdd_avg           =  -2.20115e-06 from=  1.00000e-08 to=  3.30003e-07
power_avg_uw        =  4.13448e+00


Total analysis time (seconds) = 1.0842

Total elapsed time (seconds) = 1.333 

Total DRAM available = 16384.000 MB.
DRAM currently available =   72.438 MB.
Maximum ngspice program size =   26.312 MB.
Current ngspice program size =   26.312 MB.

