
Note: Compatibility modes selected: hs a


Circuit: SKY130 library cell xor2_4 A_to_X__B=0

option SCALE: Scale is set to 1e-06 for instance and model parameters
Doing analysis at TEMP = -14.206435 and TNOM = 27.000000

Using KLU as Direct Linear Solver
 Reference value :  0.00000e+00
 Reference value :  9.99640e-09
 Reference value :  2.00664e-08
 Reference value :  2.98925e-08
 Reference value :  3.99563e-08
 Reference value :  5.00563e-08
 Reference value :  6.00263e-08
 Reference value :  7.01063e-08
 Reference value :  8.01163e-08
 Reference value :  9.02663e-08
 Reference value :  1.00236e-07
 Reference value :  1.10196e-07
 Reference value :  1.20065e-07
 Reference value :  1.30185e-07
 Reference value :  1.40260e-07
 Reference value :  1.50255e-07
 Reference value :  1.60285e-07
 Reference value :  1.70385e-07
 Reference value :  1.80360e-07
 Reference value :  1.90383e-07
 Reference value :  2.00181e-07
 Reference value :  2.10121e-07
 Reference value :  2.20041e-07
 Reference value :  2.30026e-07
 Reference value :  2.40011e-07
 Reference value :  2.50016e-07
 Reference value :  2.59891e-07
 Reference value :  2.69746e-07
 Reference value :  2.79590e-07
 Reference value :  2.89590e-07
 Reference value :  2.99775e-07
 Reference value :  3.09525e-07
 Reference value :  3.19465e-07
 Reference value :  3.29550e-07
 Reference value :  3.39585e-07
No. of Data Rows : 68032

  Measurements for Transient Analysis

tplh                =  -5.33780e-10 targ=  2.88856e-08 trig=  2.94194e-08
tphl                =  1.38464e-09 targ=  1.11643e-07 trig=  1.10258e-07
i_vdd_avg           =  -2.86717e-06 from=  1.00000e-08 to=  3.30000e-07
power_avg_uw        =  5.45248e+00


Total analysis time (seconds) = 8.8129

Total elapsed time (seconds) = 9.105 

Total DRAM available = 16384.000 MB.
DRAM currently available =  131.875 MB.
Maximum ngspice program size =   25.719 MB.
Current ngspice program size =   25.719 MB.

