
Note: Compatibility modes selected: hs a


Circuit: SKY130 library cell nor2_4 A_to_Y__B=0

option SCALE: Scale is set to 1e-06 for instance and model parameters
Doing analysis at TEMP = 38.824094 and TNOM = 27.000000

Using KLU as Direct Linear Solver
 Reference value :  0.00000e+00
 Reference value :  2.41975e-08
 Reference value :  4.85381e-08
 Reference value :  7.29881e-08
 Reference value :  9.66781e-08
 Reference value :  1.21104e-07
 Reference value :  1.45554e-07
 Reference value :  1.69934e-07
 Reference value :  1.93823e-07
 Reference value :  2.18198e-07
 Reference value :  2.42543e-07
 Reference value :  2.66839e-07
 Reference value :  2.90794e-07
 Reference value :  3.14934e-07
 Reference value :  3.39284e-07
No. of Data Rows : 68032

  Measurements for Transient Analysis

tphl                =  -1.99892e-10 targ=  2.62529e-08 trig=  2.64528e-08
tplh                =  7.89796e-10 targ=  1.02148e-07 trig=  1.01358e-07
i_vdd_avg           =  -1.81899e-06 from=  1.00000e-08 to=  3.30004e-07
power_avg_uw        =  3.59109e+00


Total analysis time (seconds) = 3.64137

Total elapsed time (seconds) = 3.902 

Total DRAM available = 16384.000 MB.
DRAM currently available =  131.875 MB.
Maximum ngspice program size =   26.438 MB.
Current ngspice program size =   26.438 MB.

