
Note: Compatibility modes selected: hs a


Circuit: SKY130 library cell nand3_4 A_to_Y__B=1,C=1

option SCALE: Scale is set to 1e-06 for instance and model parameters
Doing analysis at TEMP = 59.018654 and TNOM = 27.000000

Using KLU as Direct Linear Solver
 Reference value :  0.00000e+00
 Reference value :  1.64914e-08
 Reference value :  3.29069e-08
 Reference value :  4.97319e-08
 Reference value :  6.63569e-08
 Reference value :  8.30369e-08
 Reference value :  9.97319e-08
 Reference value :  1.16391e-07
 Reference value :  1.33056e-07
 Reference value :  1.49556e-07
 Reference value :  1.66291e-07
 Reference value :  1.83026e-07
 Reference value :  1.99457e-07
 Reference value :  2.16092e-07
 Reference value :  2.32697e-07
 Reference value :  2.49442e-07
 Reference value :  2.65877e-07
 Reference value :  2.82471e-07
 Reference value :  2.98791e-07
 Reference value :  3.15786e-07
 Reference value :  3.32511e-07
No. of Data Rows : 68032

  Measurements for Transient Analysis

tphl                =  4.73962e-10 targ=  2.76012e-08 trig=  2.71272e-08
tplh                =  1.26891e-09 targ=  1.04651e-07 trig=  1.03382e-07
i_vdd_avg           =  -2.16363e-06 from=  1.00000e-08 to=  3.30001e-07
power_avg_uw        =  3.69797e+00


Total analysis time (seconds) = 5.27468

Total elapsed time (seconds) = 5.553 

Total DRAM available = 16384.000 MB.
DRAM currently available =   67.812 MB.
Maximum ngspice program size =   29.672 MB.
Current ngspice program size =   29.672 MB.

