
Note: Compatibility modes selected: hs a


Circuit: SKY130 library cell aoi21_4 A1_to_Y__A2=1,B1=0

option SCALE: Scale is set to 1e-06 for instance and model parameters
Doing analysis at TEMP = 58.344251 and TNOM = 27.000000

Using KLU as Direct Linear Solver
 Reference value :  0.00000e+00
 Reference value :  1.63764e-08
 Reference value :  3.27811e-08
 Reference value :  4.93711e-08
 Reference value :  6.58811e-08
 Reference value :  8.25011e-08
 Reference value :  9.89397e-08
 Reference value :  1.15290e-07
 Reference value :  1.31555e-07
 Reference value :  1.48075e-07
 Reference value :  1.64345e-07
 Reference value :  1.80875e-07
 Reference value :  1.97341e-07
 Reference value :  2.13916e-07
 Reference value :  2.30271e-07
 Reference value :  2.46786e-07
 Reference value :  2.63295e-07
 Reference value :  2.79690e-07
 Reference value :  2.95775e-07
 Reference value :  3.12065e-07
 Reference value :  3.28710e-07
No. of Data Rows : 68034

  Measurements for Transient Analysis

tphl                =  1.00395e-10 targ=  2.52322e-08 trig=  2.51318e-08
tplh                =  5.01252e-10 targ=  9.78967e-08 trig=  9.73954e-08
i_vdd_avg           =  -1.03856e-06 from=  1.00000e-08 to=  3.30005e-07
power_avg_uw        =  1.93510e+00


Total analysis time (seconds) = 5.33435

Total elapsed time (seconds) = 5.607 

Total DRAM available = 16384.000 MB.
DRAM currently available =   76.422 MB.
Maximum ngspice program size =   28.516 MB.
Current ngspice program size =   28.516 MB.

