
Note: Compatibility modes selected: hs a


Circuit: SKY130 library cell xor2_1 A_to_X__B=0

option SCALE: Scale is set to 1e-06 for instance and model parameters
Doing analysis at TEMP = 73.009590 and TNOM = 27.000000

Using KLU as Direct Linear Solver
 Reference value :  0.00000e+00
 Reference value :  3.70842e-08
 Reference value :  7.44892e-08
 Reference value :  1.12176e-07
 Reference value :  1.49476e-07
 Reference value :  1.87263e-07
 Reference value :  2.25279e-07
 Reference value :  2.63229e-07
 Reference value :  3.01286e-07
No. of Data Rows : 68030

  Measurements for Transient Analysis

tplh                =  3.54323e-10 targ=  2.83302e-08 trig=  2.79758e-08
tphl                =  1.16032e-09 targ=  1.07088e-07 trig=  1.05928e-07
i_vdd_avg           =  -1.68959e-06 from=  1.00000e-08 to=  3.30001e-07
power_avg_uw        =  3.18565e+00


Total analysis time (seconds) = 2.26218

Total elapsed time (seconds) = 2.519 

Total DRAM available = 16384.000 MB.
DRAM currently available =  249.234 MB.
Maximum ngspice program size =   27.188 MB.
Current ngspice program size =   27.188 MB.

