
Note: Compatibility modes selected: hs a


Circuit: SKY130 library cell xor2_1 A_to_X__B=0

option SCALE: Scale is set to 1e-06 for instance and model parameters
Doing analysis at TEMP = 28.747558 and TNOM = 27.000000

Using KLU as Direct Linear Solver
 Reference value :  0.00000e+00
 Reference value :  3.62494e-08
 Reference value :  7.34644e-08
 Reference value :  1.10506e-07
 Reference value :  1.46271e-07
 Reference value :  1.83751e-07
 Reference value :  2.20299e-07
 Reference value :  2.56749e-07
 Reference value :  2.93266e-07
 Reference value :  3.30141e-07
No. of Data Rows : 68030

  Measurements for Transient Analysis

tplh                =  1.61050e-09 targ=  2.83965e-08 trig=  2.67860e-08
tphl                =  1.17008e-09 targ=  1.03528e-07 trig=  1.02358e-07
i_vdd_avg           =  -1.94824e-06 from=  1.00000e-08 to=  3.30001e-07
power_avg_uw        =  3.35264e+00


Total analysis time (seconds) = 2.39752

Total elapsed time (seconds) = 2.662 

Total DRAM available = 16384.000 MB.
DRAM currently available =   91.703 MB.
Maximum ngspice program size =   26.625 MB.
Current ngspice program size =   26.625 MB.

