
Note: Compatibility modes selected: hs a


Circuit: SKY130 library cell xor2_1 A_to_X__B=0

option SCALE: Scale is set to 1e-06 for instance and model parameters
Doing analysis at TEMP = -5.848708 and TNOM = 27.000000

Using KLU as Direct Linear Solver
 Reference value :  0.00000e+00
 Reference value :  3.64614e-08
 Reference value :  7.29214e-08
 Reference value :  1.09590e-07
 Reference value :  1.47780e-07
 Reference value :  1.84958e-07
 Reference value :  2.22556e-07
 Reference value :  2.58845e-07
 Reference value :  2.95275e-07
 Reference value :  3.31810e-07
No. of Data Rows : 68032

  Measurements for Transient Analysis

tplh                =  5.67601e-10 targ=  2.51121e-08 trig=  2.45445e-08
tphl                =  3.68210e-10 targ=  9.60016e-08 trig=  9.56334e-08
i_vdd_avg           =  -6.83212e-07 from=  1.00000e-08 to=  3.30000e-07
power_avg_uw        =  1.24836e+00


Total analysis time (seconds) = 2.37108

Total elapsed time (seconds) = 2.635 

Total DRAM available = 16384.000 MB.
DRAM currently available =   84.922 MB.
Maximum ngspice program size =   25.922 MB.
Current ngspice program size =   25.922 MB.

