
Note: Compatibility modes selected: hs a


Circuit: SKY130 library cell inv_1 A_to_Y

option SCALE: Scale is set to 1e-06 for instance and model parameters
Doing analysis at TEMP = 48.589470 and TNOM = 27.000000

Using KLU as Direct Linear Solver
 Reference value :  0.00000e+00
 Reference value :  1.32634e-07
 Reference value :  2.67624e-07
No. of Data Rows : 68034

  Measurements for Transient Analysis

tphl                =  -2.61278e-10 targ=  2.65529e-08 trig=  2.68142e-08
tplh                =  6.46330e-10 targ=  1.03089e-07 trig=  1.02442e-07
i_vdd_avg           =  -2.92467e-07 from=  1.00000e-08 to=  3.30004e-07
power_avg_uw        =  5.16415e-01


Total analysis time (seconds) = 0.655654

Total elapsed time (seconds) = 0.910 

Total DRAM available = 16384.000 MB.
DRAM currently available =   91.703 MB.
Maximum ngspice program size =   25.984 MB.
Current ngspice program size =   25.984 MB.

