
Note: Compatibility modes selected: hs a


Circuit: SKY130 library cell nor2_1 A_to_Y__B=0

option SCALE: Scale is set to 1e-06 for instance and model parameters
Doing analysis at TEMP = 77.557586 and TNOM = 27.000000

Using KLU as Direct Linear Solver
 Reference value :  0.00000e+00
 Reference value :  8.06279e-08
 Reference value :  1.59738e-07
 Reference value :  2.40703e-07
 Reference value :  3.19958e-07
No. of Data Rows : 68032

  Measurements for Transient Analysis

tphl                =  9.22692e-10 targ=  2.73529e-08 trig=  2.64302e-08
tplh                =  2.45126e-09 targ=  1.03742e-07 trig=  1.01291e-07
i_vdd_avg           =  -1.27219e-06 from=  1.00000e-08 to=  3.30003e-07
power_avg_uw        =  2.06119e+00


Total analysis time (seconds) = 1.09342

Total elapsed time (seconds) = 1.354 

Total DRAM available = 16384.000 MB.
DRAM currently available =  178.734 MB.
Maximum ngspice program size =   26.797 MB.
Current ngspice program size =   26.797 MB.

