
Note: Compatibility modes selected: hs a


Circuit: SKY130 library cell oai21_1 A1_to_Y__A2=0,B1=1

option SCALE: Scale is set to 1e-06 for instance and model parameters
Doing analysis at TEMP = -22.561265 and TNOM = 27.000000

Using KLU as Direct Linear Solver
 Reference value :  0.00000e+00
 Reference value :  5.78669e-08
 Reference value :  1.15151e-07
 Reference value :  1.72476e-07
 Reference value :  2.28812e-07
 Reference value :  2.86271e-07
No. of Data Rows : 68032

  Measurements for Transient Analysis

tphl                =  9.96941e-10 targ=  3.01766e-08 trig=  2.91797e-08
tplh                =  3.86130e-09 targ=  1.13400e-07 trig=  1.09539e-07
i_vdd_avg           =  -2.46498e-06 from=  1.00000e-08 to=  3.30001e-07
power_avg_uw        =  4.88028e+00


Total analysis time (seconds) = 1.51931

Total elapsed time (seconds) = 1.788 

Total DRAM available = 16384.000 MB.
DRAM currently available =  135.031 MB.
Maximum ngspice program size =   26.859 MB.
Current ngspice program size =   26.859 MB.

