
Note: Compatibility modes selected: hs a


Circuit: SKY130 library cell xor2_4 A_to_X__B=0

option SCALE: Scale is set to 1e-06 for instance and model parameters
Doing analysis at TEMP = 77.133858 and TNOM = 27.000000

Using KLU as Direct Linear Solver
 Reference value :  0.00000e+00
 Reference value :  9.93140e-09
 Reference value :  2.00114e-08
 Reference value :  2.99435e-08
 Reference value :  3.99185e-08
 Reference value :  5.00335e-08
 Reference value :  6.00435e-08
 Reference value :  6.99535e-08
 Reference value :  8.00785e-08
 Reference value :  9.01135e-08
 Reference value :  1.00124e-07
 Reference value :  1.10060e-07
 Reference value :  1.20085e-07
 Reference value :  1.30135e-07
 Reference value :  1.40190e-07
 Reference value :  1.50230e-07
 Reference value :  1.60135e-07
 Reference value :  1.70170e-07
 Reference value :  1.80200e-07
 Reference value :  1.89914e-07
 Reference value :  2.00074e-07
 Reference value :  2.10039e-07
 Reference value :  2.19979e-07
 Reference value :  2.30064e-07
 Reference value :  2.39894e-07
 Reference value :  2.50059e-07
 Reference value :  2.60009e-07
 Reference value :  2.69965e-07
 Reference value :  2.79950e-07
 Reference value :  2.89950e-07
 Reference value :  2.99830e-07
 Reference value :  3.09850e-07
 Reference value :  3.19675e-07
 Reference value :  3.29705e-07
 Reference value :  3.39780e-07
No. of Data Rows : 68032

  Measurements for Transient Analysis

tplh                =  1.59918e-10 targ=  2.63204e-08 trig=  2.61605e-08
tphl                =  6.61120e-10 targ=  1.01143e-07 trig=  1.00482e-07
i_vdd_avg           =  -3.77796e-06 from=  1.00000e-08 to=  3.30005e-07
power_avg_uw        =  7.31402e+00


Total analysis time (seconds) = 8.7437

Total elapsed time (seconds) = 9.040 

Total DRAM available = 16384.000 MB.
DRAM currently available =   84.922 MB.
Maximum ngspice program size =   26.719 MB.
Current ngspice program size =   26.719 MB.

