
Note: Compatibility modes selected: hs a


Circuit: SKY130 library cell inv_1 A_to_Y

option SCALE: Scale is set to 1e-06 for instance and model parameters
Doing analysis at TEMP = -3.753292 and TNOM = 27.000000

Using KLU as Direct Linear Solver
 Reference value :  0.00000e+00
 Reference value :  1.32712e-07
 Reference value :  2.68797e-07
No. of Data Rows : 68032

  Measurements for Transient Analysis

tphl                =  3.41204e-10 targ=  2.47286e-08 trig=  2.43873e-08
tplh                =  6.73118e-10 targ=  9.58352e-08 trig=  9.51620e-08
i_vdd_avg           =  -1.15263e-06 from=  1.00000e-08 to=  3.30002e-07
power_avg_uw        =  2.18410e+00


Total analysis time (seconds) = 0.652551

Total elapsed time (seconds) = 0.904 

Total DRAM available = 16384.000 MB.
DRAM currently available =   84.922 MB.
Maximum ngspice program size =   26.312 MB.
Current ngspice program size =   26.312 MB.

