
Note: Compatibility modes selected: hs a


Circuit: SKY130 library cell mux2_1 A0_to_X__A1=0,S=0

option SCALE: Scale is set to 1e-06 for instance and model parameters
Doing analysis at TEMP = 42.761920 and TNOM = 27.000000

Using KLU as Direct Linear Solver
 Reference value :  0.00000e+00
 Reference value :  3.00712e-08
 Reference value :  6.08762e-08
 Reference value :  9.17012e-08
 Reference value :  1.22980e-07
 Reference value :  1.53575e-07
 Reference value :  1.84138e-07
 Reference value :  2.14491e-07
 Reference value :  2.45181e-07
 Reference value :  2.75625e-07
 Reference value :  3.06745e-07
 Reference value :  3.37860e-07
No. of Data Rows : 68034

  Measurements for Transient Analysis

tplh                =  6.35510e-10 targ=  2.66223e-08 trig=  2.59868e-08
tphl                =  9.78540e-10 targ=  1.00939e-07 trig=  9.99605e-08
i_vdd_avg           =  -9.67832e-07 from=  1.00000e-08 to=  3.30005e-07
power_avg_uw        =  1.57017e+00


Total analysis time (seconds) = 2.85424

Total elapsed time (seconds) = 3.113 

Total DRAM available = 16384.000 MB.
DRAM currently available =  105.141 MB.
Maximum ngspice program size =   26.109 MB.
Current ngspice program size =   26.109 MB.

