
Note: Compatibility modes selected: hs a


Circuit: SKY130 library cell xor2_1 A_to_X__B=0

option SCALE: Scale is set to 1e-06 for instance and model parameters
Doing analysis at TEMP = 67.017976 and TNOM = 27.000000

Using KLU as Direct Linear Solver
 Reference value :  0.00000e+00
 Reference value :  3.64464e-08
 Reference value :  7.28314e-08
 Reference value :  1.09161e-07
 Reference value :  1.46545e-07
 Reference value :  1.83560e-07
 Reference value :  2.20296e-07
 Reference value :  2.57651e-07
 Reference value :  2.94495e-07
 Reference value :  3.31185e-07
No. of Data Rows : 68032

  Measurements for Transient Analysis

tplh                =  -1.63191e-10 targ=  2.78738e-08 trig=  2.80369e-08
tphl                =  9.24755e-10 targ=  1.07036e-07 trig=  1.06111e-07
i_vdd_avg           =  -4.16602e-07 from=  1.00000e-08 to=  3.30000e-07
power_avg_uw        =  6.97531e-01


Total analysis time (seconds) = 2.37021

Total elapsed time (seconds) = 2.625 

Total DRAM available = 16384.000 MB.
DRAM currently available =   76.844 MB.
Maximum ngspice program size =   25.812 MB.
Current ngspice program size =   25.812 MB.

