
Note: Compatibility modes selected: hs a


Circuit: SKY130 library cell oai21_4 A1_to_Y__A2=0,B1=1

option SCALE: Scale is set to 1e-06 for instance and model parameters
Doing analysis at TEMP = 64.162301 and TNOM = 27.000000

Using KLU as Direct Linear Solver
 Reference value :  0.00000e+00
 Reference value :  1.61414e-08
 Reference value :  3.22052e-08
 Reference value :  4.86052e-08
 Reference value :  6.53302e-08
 Reference value :  8.15952e-08
 Reference value :  9.82502e-08
 Reference value :  1.14323e-07
 Reference value :  1.30728e-07
 Reference value :  1.47263e-07
 Reference value :  1.63883e-07
 Reference value :  1.80238e-07
 Reference value :  1.96460e-07
 Reference value :  2.13010e-07
 Reference value :  2.29635e-07
 Reference value :  2.45745e-07
 Reference value :  2.62425e-07
 Reference value :  2.78518e-07
 Reference value :  2.94933e-07
 Reference value :  3.11398e-07
 Reference value :  3.27798e-07
No. of Data Rows : 68034

  Measurements for Transient Analysis

tphl                =  -3.05561e-10 targ=  2.64308e-08 trig=  2.67364e-08
tplh                =  6.47284e-10 targ=  1.02856e-07 trig=  1.02209e-07
i_vdd_avg           =  -1.80677e-06 from=  1.00000e-08 to=  3.30003e-07
power_avg_uw        =  3.54466e+00


Total analysis time (seconds) = 5.35968

Total elapsed time (seconds) = 5.632 

Total DRAM available = 16384.000 MB.
DRAM currently available =   88.484 MB.
Maximum ngspice program size =   26.156 MB.
Current ngspice program size =   26.156 MB.

