
Note: Compatibility modes selected: hs a


Circuit: SKY130 library cell oai21_1 A1_to_Y__A2=0,B1=1

option SCALE: Scale is set to 1e-06 for instance and model parameters
Doing analysis at TEMP = 83.501658 and TNOM = 27.000000

Using KLU as Direct Linear Solver
 Reference value :  0.00000e+00
 Reference value :  5.73115e-08
 Reference value :  1.15475e-07
 Reference value :  1.73250e-07
 Reference value :  2.32386e-07
 Reference value :  2.91075e-07
No. of Data Rows : 68032

  Measurements for Transient Analysis

tphl                =  1.16771e-09 targ=  2.93447e-08 trig=  2.81770e-08
tplh                =  2.95580e-09 targ=  1.09487e-07 trig=  1.06531e-07
i_vdd_avg           =  -1.87244e-06 from=  1.00000e-08 to=  3.30000e-07
power_avg_uw        =  3.36761e+00


Total analysis time (seconds) = 1.48102

Total elapsed time (seconds) = 1.734 

Total DRAM available = 16384.000 MB.
DRAM currently available =  214.125 MB.
Maximum ngspice program size =   26.031 MB.
Current ngspice program size =   26.031 MB.

