
Note: Compatibility modes selected: hs a


Circuit: SKY130 library cell nor2_1 A_to_Y__B=0

option SCALE: Scale is set to 1e-06 for instance and model parameters
Doing analysis at TEMP = 107.856950 and TNOM = 27.000000

Using KLU as Direct Linear Solver
 Reference value :  0.00000e+00
 Reference value :  8.16491e-08
 Reference value :  1.61691e-07
 Reference value :  2.42904e-07
 Reference value :  3.22606e-07
No. of Data Rows : 68030

  Measurements for Transient Analysis

tphl                =  3.77532e-10 targ=  2.77084e-08 trig=  2.73308e-08
tplh                =  1.73713e-09 targ=  1.05730e-07 trig=  1.03992e-07
i_vdd_avg           =  -1.53139e-06 from=  1.00000e-08 to=  3.30001e-07
power_avg_uw        =  3.01528e+00


Total analysis time (seconds) = 1.09117

Total elapsed time (seconds) = 1.344 

Total DRAM available = 16384.000 MB.
DRAM currently available =  105.250 MB.
Maximum ngspice program size =   28.266 MB.
Current ngspice program size =   28.266 MB.

