
Note: Compatibility modes selected: hs a


Circuit: SKY130 library cell nor2_4 A_to_Y__B=0

option SCALE: Scale is set to 1e-06 for instance and model parameters
Doing analysis at TEMP = -5.036699 and TNOM = 27.000000

Using KLU as Direct Linear Solver
 Reference value :  0.00000e+00
 Reference value :  2.42375e-08
 Reference value :  4.88223e-08
 Reference value :  7.27823e-08
 Reference value :  9.69171e-08
 Reference value :  1.21432e-07
 Reference value :  1.45437e-07
 Reference value :  1.69582e-07
 Reference value :  1.93927e-07
 Reference value :  2.18157e-07
 Reference value :  2.42682e-07
 Reference value :  2.66652e-07
 Reference value :  2.90682e-07
 Reference value :  3.14937e-07
 Reference value :  3.39282e-07
No. of Data Rows : 68032

  Measurements for Transient Analysis

tphl                =  1.72843e-10 targ=  2.45952e-08 trig=  2.44224e-08
tplh                =  5.35148e-10 targ=  9.58024e-08 trig=  9.52672e-08
i_vdd_avg           =  -1.77924e-06 from=  1.00000e-08 to=  3.30002e-07
power_avg_uw        =  3.38687e+00


Total analysis time (seconds) = 3.63095

Total elapsed time (seconds) = 3.898 

Total DRAM available = 16384.000 MB.
DRAM currently available =   84.922 MB.
Maximum ngspice program size =   27.500 MB.
Current ngspice program size =   27.500 MB.

