
Note: Compatibility modes selected: hs a


Circuit: SKY130 library cell aoi21_1 A1_to_Y__A2=1,B1=0

option SCALE: Scale is set to 1e-06 for instance and model parameters
Doing analysis at TEMP = 106.508860 and TNOM = 27.000000

Using KLU as Direct Linear Solver
 Reference value :  4.81640e-09
 Reference value :  6.65820e-08
 Reference value :  1.22647e-07
 Reference value :  1.78242e-07
 Reference value :  2.32997e-07
 Reference value :  2.88412e-07
No. of Data Rows : 68032

  Measurements for Transient Analysis

tphl                =  4.73520e-10 targ=  2.96433e-08 trig=  2.91698e-08
tplh                =  1.96702e-09 targ=  1.11476e-07 trig=  1.09509e-07
i_vdd_avg           =  -1.04326e-06 from=  1.00000e-08 to=  3.30002e-07
power_avg_uw        =  1.85226e+00


Total analysis time (seconds) = 1.59517

Total elapsed time (seconds) = 1.825 

Total DRAM available = 16384.000 MB.
DRAM currently available =  104.328 MB.
Maximum ngspice program size =   24.172 MB.
Current ngspice program size =   24.172 MB.

