
Note: Compatibility modes selected: hs a


Circuit: SKY130 library cell nand3_1 A_to_Y__B=1,C=1

option SCALE: Scale is set to 1e-06 for instance and model parameters
Doing analysis at TEMP = 40.153094 and TNOM = 27.000000

Using KLU as Direct Linear Solver
 Reference value :  0.00000e+00
 Reference value :  5.79754e-08
 Reference value :  1.15883e-07
 Reference value :  1.73228e-07
 Reference value :  2.30600e-07
 Reference value :  2.89043e-07
No. of Data Rows : 68034

  Measurements for Transient Analysis

tphl                =  1.02783e-09 targ=  2.77668e-08 trig=  2.67389e-08
tplh                =  1.79080e-09 targ=  1.04008e-07 trig=  1.02217e-07
i_vdd_avg           =  -1.53399e-06 from=  1.00000e-08 to=  3.30003e-07
power_avg_uw        =  2.88397e+00


Total analysis time (seconds) = 1.51193

Total elapsed time (seconds) = 1.772 

Total DRAM available = 16384.000 MB.
DRAM currently available =  203.844 MB.
Maximum ngspice program size =   27.016 MB.
Current ngspice program size =   27.016 MB.

