
Note: Compatibility modes selected: hs a


Circuit: SKY130 library cell aoi21_1 A1_to_Y__A2=1,B1=0

option SCALE: Scale is set to 1e-06 for instance and model parameters
Doing analysis at TEMP = 52.942396 and TNOM = 27.000000

Using KLU as Direct Linear Solver
 Reference value :  0.00000e+00
 Reference value :  5.71062e-08
 Reference value :  1.15530e-07
 Reference value :  1.72900e-07
 Reference value :  2.29616e-07
 Reference value :  2.86840e-07
No. of Data Rows : 68034

  Measurements for Transient Analysis

tphl                =  5.40646e-10 targ=  2.45725e-08 trig=  2.40319e-08
tplh                =  1.55613e-09 targ=  9.56517e-08 trig=  9.40956e-08
i_vdd_avg           =  -1.44911e-06 from=  1.00000e-08 to=  3.30005e-07
power_avg_uw        =  2.43593e+00


Total analysis time (seconds) = 1.52641

Total elapsed time (seconds) = 1.798 

Total DRAM available = 16384.000 MB.
DRAM currently available =   94.781 MB.
Maximum ngspice program size =   26.312 MB.
Current ngspice program size =   26.312 MB.

