
Note: Compatibility modes selected: hs a


Circuit: SKY130 library cell xor2_4 A_to_X__B=0

option SCALE: Scale is set to 1e-06 for instance and model parameters
Doing analysis at TEMP = 101.680850 and TNOM = 27.000000

Using KLU as Direct Linear Solver
 Reference value :  0.00000e+00
 Reference value :  9.79640e-09
 Reference value :  1.96164e-08
 Reference value :  2.92681e-08
 Reference value :  3.88631e-08
 Reference value :  4.87531e-08
 Reference value :  5.87031e-08
 Reference value :  6.83681e-08
 Reference value :  7.83531e-08
 Reference value :  8.82331e-08
 Reference value :  9.81831e-08
 Reference value :  1.08129e-07
 Reference value :  1.18164e-07
 Reference value :  1.28219e-07
 Reference value :  1.38139e-07
 Reference value :  1.47899e-07
 Reference value :  1.57794e-07
 Reference value :  1.67789e-07
 Reference value :  1.77714e-07
 Reference value :  1.87518e-07
 Reference value :  1.97283e-07
 Reference value :  2.07173e-07
 Reference value :  2.16998e-07
 Reference value :  2.26748e-07
 Reference value :  2.36623e-07
 Reference value :  2.46503e-07
 Reference value :  2.56313e-07
 Reference value :  2.66314e-07
 Reference value :  2.76229e-07
 Reference value :  2.86139e-07
 Reference value :  2.95979e-07
 Reference value :  3.05839e-07
 Reference value :  3.15799e-07
 Reference value :  3.25794e-07
 Reference value :  3.35889e-07
No. of Data Rows : 68032

  Measurements for Transient Analysis

tplh                =  1.14821e-10 targ=  2.51951e-08 trig=  2.50803e-08
tphl                =  3.48037e-10 targ=  9.75890e-08 trig=  9.72410e-08
i_vdd_avg           =  -1.27094e-06 from=  1.00000e-08 to=  3.30004e-07
power_avg_uw        =  2.25043e+00


Total analysis time (seconds) = 8.94499

Total elapsed time (seconds) = 9.249 

Total DRAM available = 16384.000 MB.
DRAM currently available =   92.453 MB.
Maximum ngspice program size =   28.156 MB.
Current ngspice program size =   28.156 MB.

