
Note: Compatibility modes selected: hs a


Circuit: SKY130 library cell inv_4 A_to_Y

option SCALE: Scale is set to 1e-06 for instance and model parameters
Doing analysis at TEMP = -35.862641 and TNOM = 27.000000

Using KLU as Direct Linear Solver
 Reference value :  0.00000e+00
 Reference value :  4.69554e-08
 Reference value :  9.46104e-08
 Reference value :  1.41308e-07
 Reference value :  1.88423e-07
 Reference value :  2.35185e-07
 Reference value :  2.82918e-07
 Reference value :  3.29613e-07
No. of Data Rows : 68034

  Measurements for Transient Analysis

tphl                =  -2.57902e-10 targ=  2.91985e-08 trig=  2.94564e-08
tplh                =  2.05813e-09 targ=  1.12427e-07 trig=  1.10369e-07
i_vdd_avg           =  -2.78640e-06 from=  1.00000e-08 to=  3.30003e-07
power_avg_uw        =  5.24097e+00


Total analysis time (seconds) = 1.86954

Total elapsed time (seconds) = 2.132 

Total DRAM available = 16384.000 MB.
DRAM currently available =  141.859 MB.
Maximum ngspice program size =   27.516 MB.
Current ngspice program size =   27.516 MB.

