
Note: Compatibility modes selected: hs a


Circuit: SKY130 library cell nand3_4 A_to_Y__B=1,C=1

option SCALE: Scale is set to 1e-06 for instance and model parameters
Doing analysis at TEMP = 36.793300 and TNOM = 27.000000

Using KLU as Direct Linear Solver
 Reference value :  0.00000e+00
 Reference value :  1.68014e-08
 Reference value :  3.34307e-08
 Reference value :  5.02557e-08
 Reference value :  6.66257e-08
 Reference value :  8.32107e-08
 Reference value :  9.95888e-08
 Reference value :  1.16314e-07
 Reference value :  1.32899e-07
 Reference value :  1.49764e-07
 Reference value :  1.66654e-07
 Reference value :  1.83359e-07
 Reference value :  1.99896e-07
 Reference value :  2.16611e-07
 Reference value :  2.33371e-07
 Reference value :  2.50271e-07
 Reference value :  2.67329e-07
 Reference value :  2.84584e-07
 Reference value :  3.02484e-07
 Reference value :  3.22419e-07
No. of Data Rows : 68034

  Measurements for Transient Analysis

tphl                =  5.96526e-11 targ=  2.48462e-08 trig=  2.47866e-08
tplh                =  2.80912e-10 targ=  9.66407e-08 trig=  9.63597e-08
i_vdd_avg           =  -4.98052e-07 from=  1.00000e-08 to=  3.30004e-07
power_avg_uw        =  8.95919e-01


Total analysis time (seconds) = 5.03763

Total elapsed time (seconds) = 5.312 

Total DRAM available = 16384.000 MB.
DRAM currently available =  331.031 MB.
Maximum ngspice program size =   27.078 MB.
Current ngspice program size =   27.078 MB.

