
Note: Compatibility modes selected: hs a


Circuit: SKY130 library cell inv_4 A_to_Y

option SCALE: Scale is set to 1e-06 for instance and model parameters
Doing analysis at TEMP = 22.629615 and TNOM = 27.000000

Using KLU as Direct Linear Solver
 Reference value :  0.00000e+00
 Reference value :  4.68702e-08
 Reference value :  9.31302e-08
 Reference value :  1.39923e-07
 Reference value :  1.86533e-07
 Reference value :  2.33110e-07
 Reference value :  2.78933e-07
 Reference value :  3.25468e-07
No. of Data Rows : 68034

  Measurements for Transient Analysis

tphl                =  -1.33039e-10 targ=  2.64383e-08 trig=  2.65713e-08
tplh                =  8.37801e-10 targ=  1.02552e-07 trig=  1.01714e-07
i_vdd_avg           =  -2.10714e-06 from=  1.00000e-08 to=  3.30003e-07
power_avg_uw        =  4.09946e+00


Total analysis time (seconds) = 1.88208

Total elapsed time (seconds) = 2.149 

Total DRAM available = 16384.000 MB.
DRAM currently available =   73.266 MB.
Maximum ngspice program size =   27.484 MB.
Current ngspice program size =   27.484 MB.

