
Note: Compatibility modes selected: hs a


Circuit: SKY130 library cell xor2_4 A_to_X__B=0

option SCALE: Scale is set to 1e-06 for instance and model parameters
Doing analysis at TEMP = 20.423016 and TNOM = 27.000000

Using KLU as Direct Linear Solver
 Reference value :  0.00000e+00
 Reference value :  1.00414e-08
 Reference value :  2.02214e-08
 Reference value :  3.03775e-08
 Reference value :  4.06003e-08
 Reference value :  5.06153e-08
 Reference value :  6.07503e-08
 Reference value :  7.09953e-08
 Reference value :  8.15203e-08
 Reference value :  9.28103e-08
 Reference value :  1.05830e-07
 Reference value :  1.19558e-07
 Reference value :  1.35258e-07
 Reference value :  1.52483e-07
 Reference value :  1.69723e-07
 Reference value :  1.86968e-07
 Reference value :  2.05290e-07
 Reference value :  2.26665e-07
 Reference value :  2.49560e-07
 Reference value :  2.73833e-07
 Reference value :  2.99208e-07
 Reference value :  3.25328e-07
No. of Data Rows : 68034

  Measurements for Transient Analysis

tplh                =  -1.18013e-10 targ=  2.81284e-08 trig=  2.82464e-08
tphl                =  1.14029e-09 targ=  1.07879e-07 trig=  1.06739e-07
i_vdd_avg           =  -3.32712e-06 from=  1.00000e-08 to=  3.30003e-07
power_avg_uw        =  6.13196e+00


Total analysis time (seconds) = 5.42037

Total elapsed time (seconds) = 5.707 

Total DRAM available = 16384.000 MB.
DRAM currently available =  354.422 MB.
Maximum ngspice program size =   29.812 MB.
Current ngspice program size =   29.812 MB.

