
Note: Compatibility modes selected: hs a


Circuit: SKY130 library cell xor2_4 A_to_X__B=0

option SCALE: Scale is set to 1e-06 for instance and model parameters
Doing analysis at TEMP = 51.382357 and TNOM = 27.000000

Using KLU as Direct Linear Solver
 Reference value :  0.00000e+00
 Reference value :  1.00164e-08
 Reference value :  1.99414e-08
 Reference value :  2.97325e-08
 Reference value :  3.97043e-08
 Reference value :  4.95793e-08
 Reference value :  5.95193e-08
 Reference value :  6.94693e-08
 Reference value :  7.94193e-08
 Reference value :  8.93843e-08
 Reference value :  9.94093e-08
 Reference value :  1.09071e-07
 Reference value :  1.19021e-07
 Reference value :  1.28916e-07
 Reference value :  1.38831e-07
 Reference value :  1.48896e-07
 Reference value :  1.58941e-07
 Reference value :  1.68896e-07
 Reference value :  1.78776e-07
 Reference value :  1.88663e-07
 Reference value :  1.98719e-07
 Reference value :  2.08869e-07
 Reference value :  2.18929e-07
 Reference value :  2.28779e-07
 Reference value :  2.38824e-07
 Reference value :  2.48894e-07
 Reference value :  2.58839e-07
 Reference value :  2.68876e-07
 Reference value :  2.79011e-07
 Reference value :  2.89121e-07
 Reference value :  2.99296e-07
 Reference value :  3.09456e-07
 Reference value :  3.19676e-07
 Reference value :  3.29976e-07
No. of Data Rows : 68030

  Measurements for Transient Analysis

tplh                =  -2.05896e-10 targ=  2.71525e-08 trig=  2.73584e-08
tphl                =  7.83079e-10 targ=  1.04858e-07 trig=  1.04075e-07
i_vdd_avg           =  -1.04570e-06 from=  1.00000e-08 to=  3.30001e-07
power_avg_uw        =  1.76477e+00


Total analysis time (seconds) = 8.75532

Total elapsed time (seconds) = 9.055 

Total DRAM available = 16384.000 MB.
DRAM currently available =  223.891 MB.
Maximum ngspice program size =   28.391 MB.
Current ngspice program size =   28.391 MB.

