
Note: Compatibility modes selected: hs a


Circuit: SKY130 library cell oai21_1 A1_to_Y__A2=0,B1=1

option SCALE: Scale is set to 1e-06 for instance and model parameters
Doing analysis at TEMP = 17.017946 and TNOM = 27.000000

Using KLU as Direct Linear Solver
 Reference value :  0.00000e+00
 Reference value :  5.80480e-08
 Reference value :  1.14808e-07
 Reference value :  1.72778e-07
 Reference value :  2.29803e-07
 Reference value :  2.87643e-07
No. of Data Rows : 68032

  Measurements for Transient Analysis

tphl                =  -5.86501e-11 targ=  2.54966e-08 trig=  2.55552e-08
tplh                =  5.39555e-10 targ=  9.92053e-08 trig=  9.86657e-08
i_vdd_avg           =  -1.72609e-07 from=  1.00000e-08 to=  3.30003e-07
power_avg_uw        =  3.20586e-01


Total analysis time (seconds) = 1.52785

Total elapsed time (seconds) = 1.774 

Total DRAM available = 16384.000 MB.
DRAM currently available =   75.812 MB.
Maximum ngspice program size =   24.781 MB.
Current ngspice program size =   24.781 MB.

