
Note: Compatibility modes selected: hs a


Circuit: SKY130 library cell mux2_1 A0_to_X__A1=0,S=0

option SCALE: Scale is set to 1e-06 for instance and model parameters
Doing analysis at TEMP = 103.740220 and TNOM = 27.000000

Using KLU as Direct Linear Solver
 Reference value :  2.05140e-09
 Reference value :  3.38815e-08
 Reference value :  6.49515e-08
 Reference value :  9.60615e-08
 Reference value :  1.25710e-07
 Reference value :  1.56170e-07
 Reference value :  1.85866e-07
 Reference value :  2.15996e-07
 Reference value :  2.46466e-07
 Reference value :  2.77275e-07
 Reference value :  3.08520e-07
 Reference value :  3.39345e-07
No. of Data Rows : 68032

  Measurements for Transient Analysis

tplh                =  4.99915e-10 targ=  2.52469e-08 trig=  2.47470e-08
tphl                =  6.02875e-10 targ=  9.68438e-08 trig=  9.62410e-08
i_vdd_avg           =  -1.42421e-06 from=  1.00000e-08 to=  3.30000e-07
power_avg_uw        =  2.80127e+00


Total analysis time (seconds) = 2.9812

Total elapsed time (seconds) = 3.215 

Total DRAM available = 16384.000 MB.
DRAM currently available =  110.375 MB.
Maximum ngspice program size =   26.781 MB.
Current ngspice program size =   26.781 MB.

