
Note: Compatibility modes selected: hs a


Circuit: SKY130 library cell nand3_4 A_to_Y__B=1,C=1

option SCALE: Scale is set to 1e-06 for instance and model parameters
Doing analysis at TEMP = -22.741352 and TNOM = 27.000000

Using KLU as Direct Linear Solver
 Reference value :  0.00000e+00
 Reference value :  1.64814e-08
 Reference value :  3.31026e-08
 Reference value :  5.00226e-08
 Reference value :  6.67826e-08
 Reference value :  8.33076e-08
 Reference value :  1.00128e-07
 Reference value :  1.16593e-07
 Reference value :  1.33283e-07
 Reference value :  1.49978e-07
 Reference value :  1.66578e-07
 Reference value :  1.82943e-07
 Reference value :  1.99643e-07
 Reference value :  2.16203e-07
 Reference value :  2.33073e-07
 Reference value :  2.49888e-07
 Reference value :  2.66563e-07
 Reference value :  2.83363e-07
 Reference value :  2.99833e-07
 Reference value :  3.16718e-07
 Reference value :  3.33318e-07
No. of Data Rows : 68032

  Measurements for Transient Analysis

tphl                =  4.03857e-10 targ=  2.62289e-08 trig=  2.58251e-08
tplh                =  1.13450e-09 targ=  1.00610e-07 trig=  9.94752e-08
i_vdd_avg           =  -1.30460e-06 from=  1.00000e-08 to=  3.30003e-07
power_avg_uw        =  2.14710e+00


Total analysis time (seconds) = 5.26426

Total elapsed time (seconds) = 5.542 

Total DRAM available = 16384.000 MB.
DRAM currently available =  131.875 MB.
Maximum ngspice program size =   27.844 MB.
Current ngspice program size =   27.844 MB.

