
Note: Compatibility modes selected: hs a


Circuit: SKY130 library cell aoi21_4 A1_to_Y__A2=1,B1=0

option SCALE: Scale is set to 1e-06 for instance and model parameters
Doing analysis at TEMP = 115.516600 and TNOM = 27.000000

Using KLU as Direct Linear Solver
 Reference value :  0.00000e+00
 Reference value :  1.66714e-08
 Reference value :  3.29007e-08
 Reference value :  4.93107e-08
 Reference value :  6.54707e-08
 Reference value :  8.18957e-08
 Reference value :  9.84207e-08
 Reference value :  1.14724e-07
 Reference value :  1.30804e-07
 Reference value :  1.47069e-07
 Reference value :  1.63584e-07
 Reference value :  1.80254e-07
 Reference value :  1.96516e-07
 Reference value :  2.12661e-07
 Reference value :  2.29171e-07
 Reference value :  2.45636e-07
 Reference value :  2.61936e-07
 Reference value :  2.78374e-07
 Reference value :  2.94489e-07
 Reference value :  3.10649e-07
 Reference value :  3.26944e-07
No. of Data Rows : 68034

  Measurements for Transient Analysis

tphl                =  2.25752e-10 targ=  2.67224e-08 trig=  2.64966e-08
tplh                =  9.19185e-10 targ=  1.02409e-07 trig=  1.01490e-07
i_vdd_avg           =  -2.42590e-06 from=  1.00000e-08 to=  3.30004e-07
power_avg_uw        =  4.46799e+00


Total analysis time (seconds) = 5.41844

Total elapsed time (seconds) = 5.694 

Total DRAM available = 16384.000 MB.
DRAM currently available =   97.016 MB.
Maximum ngspice program size =   26.156 MB.
Current ngspice program size =   26.156 MB.

