
Note: Compatibility modes selected: hs a


Circuit: SKY130 library cell inv_4 A_to_Y

option SCALE: Scale is set to 1e-06 for instance and model parameters
Doing analysis at TEMP = 51.194898 and TNOM = 27.000000

Using KLU as Direct Linear Solver
 Reference value :  0.00000e+00
 Reference value :  4.65440e-08
 Reference value :  9.30890e-08
 Reference value :  1.39961e-07
 Reference value :  1.86369e-07
 Reference value :  2.33259e-07
 Reference value :  2.80406e-07
 Reference value :  3.25651e-07
No. of Data Rows : 68030

  Measurements for Transient Analysis

tphl                =  1.35074e-10 targ=  2.43008e-08 trig=  2.41658e-08
tplh                =  2.42248e-10 targ=  9.47395e-08 trig=  9.44973e-08
i_vdd_avg           =  -1.44645e-06 from=  1.00000e-08 to=  3.30001e-07
power_avg_uw        =  2.60670e+00


Total analysis time (seconds) = 1.88358

Total elapsed time (seconds) = 2.144 

Total DRAM available = 16384.000 MB.
DRAM currently available =   97.938 MB.
Maximum ngspice program size =   26.984 MB.
Current ngspice program size =   26.984 MB.

