
Note: Compatibility modes selected: hs a


Circuit: SKY130 library cell nor2_4 A_to_Y__B=0

option SCALE: Scale is set to 1e-06 for instance and model parameters
Doing analysis at TEMP = 77.429773 and TNOM = 27.000000

Using KLU as Direct Linear Solver
 Reference value :  0.00000e+00
 Reference value :  2.40625e-08
 Reference value :  4.79072e-08
 Reference value :  7.23022e-08
 Reference value :  9.64822e-08
 Reference value :  1.20917e-07
 Reference value :  1.45782e-07
 Reference value :  1.70902e-07
 Reference value :  1.96187e-07
 Reference value :  2.21142e-07
 Reference value :  2.45352e-07
 Reference value :  2.70392e-07
 Reference value :  2.95462e-07
 Reference value :  3.21452e-07
No. of Data Rows : 68032

  Measurements for Transient Analysis

tphl                =  -1.87027e-10 targ=  2.92578e-08 trig=  2.94449e-08
tplh                =  1.78371e-09 targ=  1.12118e-07 trig=  1.10335e-07
i_vdd_avg           =  -3.54389e-06 from=  1.00000e-08 to=  3.30002e-07
power_avg_uw        =  6.47599e+00


Total analysis time (seconds) = 3.49117

Total elapsed time (seconds) = 3.760 

Total DRAM available = 16384.000 MB.
DRAM currently available =  307.156 MB.
Maximum ngspice program size =   26.047 MB.
Current ngspice program size =   26.047 MB.

