
Note: Compatibility modes selected: hs a


Circuit: SKY130 library cell aoi21_1 A1_to_Y__A2=1,B1=0

option SCALE: Scale is set to 1e-06 for instance and model parameters
Doing analysis at TEMP = 0.354264 and TNOM = 27.000000

Using KLU as Direct Linear Solver
 Reference value :  0.00000e+00
 Reference value :  5.61102e-08
 Reference value :  1.12943e-07
 Reference value :  1.70148e-07
 Reference value :  2.28155e-07
 Reference value :  2.86728e-07
No. of Data Rows : 68034

  Measurements for Transient Analysis

tphl                =  -5.68627e-11 targ=  2.81670e-08 trig=  2.82238e-08
tplh                =  1.66931e-09 targ=  1.08341e-07 trig=  1.06672e-07
i_vdd_avg           =  -4.79107e-07 from=  1.00000e-08 to=  3.30003e-07
power_avg_uw        =  8.78641e-01


Total analysis time (seconds) = 1.54685

Total elapsed time (seconds) = 1.791 

Total DRAM available = 16384.000 MB.
DRAM currently available =   97.141 MB.
Maximum ngspice program size =   26.609 MB.
Current ngspice program size =   26.609 MB.

