
Note: Compatibility modes selected: hs a


Circuit: SKY130 library cell mux2_4 A0_to_X__A1=0,S=0

option SCALE: Scale is set to 1e-06 for instance and model parameters
Doing analysis at TEMP = 59.148531 and TNOM = 27.000000

Using KLU as Direct Linear Solver
 Reference value :  0.00000e+00
 Reference value :  2.13614e-08
 Reference value :  4.25329e-08
 Reference value :  6.41379e-08
 Reference value :  8.52879e-08
 Reference value :  1.06458e-07
 Reference value :  1.27978e-07
 Reference value :  1.49063e-07
 Reference value :  1.69868e-07
 Reference value :  1.91293e-07
 Reference value :  2.12628e-07
 Reference value :  2.33938e-07
 Reference value :  2.55018e-07
 Reference value :  2.76413e-07
 Reference value :  2.97783e-07
 Reference value :  3.19248e-07
No. of Data Rows : 68032

  Measurements for Transient Analysis

tplh                =  5.62998e-11 targ=  2.67865e-08 trig=  2.67302e-08
tphl                =  9.49176e-10 targ=  1.03140e-07 trig=  1.02191e-07
i_vdd_avg           =  -1.93694e-06 from=  1.00000e-08 to=  3.30003e-07
power_avg_uw        =  3.76232e+00


Total analysis time (seconds) = 4.12537

Total elapsed time (seconds) = 4.393 

Total DRAM available = 16384.000 MB.
DRAM currently available =   93.734 MB.
Maximum ngspice program size =   27.203 MB.
Current ngspice program size =   27.203 MB.

