
Note: Compatibility modes selected: hs a


Circuit: SKY130 library cell oai21_4 A1_to_Y__A2=0,B1=1

option SCALE: Scale is set to 1e-06 for instance and model parameters
Doing analysis at TEMP = 102.173400 and TNOM = 27.000000

Using KLU as Direct Linear Solver
 Reference value :  0.00000e+00
 Reference value :  1.64664e-08
 Reference value :  3.27050e-08
 Reference value :  4.89300e-08
 Reference value :  6.55850e-08
 Reference value :  8.21050e-08
 Reference value :  9.83825e-08
 Reference value :  1.14922e-07
 Reference value :  1.31137e-07
 Reference value :  1.47797e-07
 Reference value :  1.64317e-07
 Reference value :  1.80752e-07
 Reference value :  1.96885e-07
 Reference value :  2.13280e-07
 Reference value :  2.29780e-07
 Reference value :  2.46260e-07
 Reference value :  2.62567e-07
 Reference value :  2.79122e-07
 Reference value :  2.95697e-07
 Reference value :  3.12247e-07
 Reference value :  3.28832e-07
No. of Data Rows : 68030

  Measurements for Transient Analysis

tphl                =  1.24168e-10 targ=  2.43104e-08 trig=  2.41862e-08
tplh                =  2.45626e-10 targ=  9.48044e-08 trig=  9.45587e-08
i_vdd_avg           =  -8.84337e-07 from=  1.00000e-08 to=  3.30002e-07
power_avg_uw        =  1.59923e+00


Total analysis time (seconds) = 5.38649

Total elapsed time (seconds) = 5.660 

Total DRAM available = 16384.000 MB.
DRAM currently available =  141.859 MB.
Maximum ngspice program size =   27.906 MB.
Current ngspice program size =   27.906 MB.

