
Note: Compatibility modes selected: hs a


Circuit: SKY130 library cell nor2_4 A_to_Y__B=0

option SCALE: Scale is set to 1e-06 for instance and model parameters
Doing analysis at TEMP = 120.480960 and TNOM = 27.000000

Using KLU as Direct Linear Solver
 Reference value :  0.00000e+00
 Reference value :  2.44875e-08
 Reference value :  4.83270e-08
 Reference value :  7.26970e-08
 Reference value :  9.70920e-08
 Reference value :  1.20877e-07
 Reference value :  1.45287e-07
 Reference value :  1.69327e-07
 Reference value :  1.93560e-07
 Reference value :  2.17972e-07
 Reference value :  2.41952e-07
 Reference value :  2.65842e-07
 Reference value :  2.90032e-07
 Reference value :  3.13827e-07
 Reference value :  3.38037e-07
No. of Data Rows : 68032

  Measurements for Transient Analysis

tphl                =  -1.67558e-10 targ=  2.86122e-08 trig=  2.87798e-08
tplh                =  1.28472e-09 targ=  1.09624e-07 trig=  1.08339e-07
i_vdd_avg           =  -3.08952e-06 from=  1.00000e-08 to=  3.30002e-07
power_avg_uw        =  5.46403e+00


Total analysis time (seconds) = 3.63028

Total elapsed time (seconds) = 3.900 

Total DRAM available = 16384.000 MB.
DRAM currently available =  111.078 MB.
Maximum ngspice program size =   28.438 MB.
Current ngspice program size =   28.438 MB.

