
Note: Compatibility modes selected: hs a


Circuit: SKY130 library cell aoi21_4 A1_to_Y__A2=1,B1=0

option SCALE: Scale is set to 1e-06 for instance and model parameters
Doing analysis at TEMP = 9.775169 and TNOM = 27.000000

Using KLU as Direct Linear Solver
 Reference value :  0.00000e+00
 Reference value :  1.74114e-08
 Reference value :  3.37025e-08
 Reference value :  4.99477e-08
 Reference value :  6.64327e-08
 Reference value :  8.26227e-08
 Reference value :  9.88677e-08
 Reference value :  1.15138e-07
 Reference value :  1.31428e-07
 Reference value :  1.48093e-07
 Reference value :  1.64603e-07
 Reference value :  1.81078e-07
 Reference value :  1.97543e-07
 Reference value :  2.13998e-07
 Reference value :  2.30648e-07
 Reference value :  2.46983e-07
 Reference value :  2.63568e-07
 Reference value :  2.79973e-07
 Reference value :  2.96283e-07
 Reference value :  3.12863e-07
 Reference value :  3.29438e-07
No. of Data Rows : 68032

  Measurements for Transient Analysis

tphl                =  -7.87202e-10 targ=  2.90629e-08 trig=  2.98501e-08
tplh                =  1.36334e-09 targ=  1.12914e-07 trig=  1.11550e-07
i_vdd_avg           =  -2.30246e-06 from=  1.00000e-08 to=  3.30003e-07
power_avg_uw        =  4.43640e+00


Total analysis time (seconds) = 5.47886

Total elapsed time (seconds) = 5.732 

Total DRAM available = 16384.000 MB.
DRAM currently available =   90.891 MB.
Maximum ngspice program size =   28.031 MB.
Current ngspice program size =   28.031 MB.

