
Note: Compatibility modes selected: hs a


Circuit: SKY130 library cell nand3_1 A_to_Y__B=1,C=1

option SCALE: Scale is set to 1e-06 for instance and model parameters
Doing analysis at TEMP = 109.588870 and TNOM = 27.000000

Using KLU as Direct Linear Solver
 Reference value :  0.00000e+00
 Reference value :  5.81513e-08
 Reference value :  1.16305e-07
 Reference value :  1.75365e-07
 Reference value :  2.32771e-07
 Reference value :  2.91400e-07
No. of Data Rows : 68032

  Measurements for Transient Analysis

tphl                =  1.62927e-09 targ=  2.88937e-08 trig=  2.72644e-08
tplh                =  2.14422e-09 targ=  1.05937e-07 trig=  1.03793e-07
i_vdd_avg           =  -1.64062e-06 from=  1.00000e-08 to=  3.30000e-07
power_avg_uw        =  2.77752e+00


Total analysis time (seconds) = 1.53417

Total elapsed time (seconds) = 1.790 

Total DRAM available = 16384.000 MB.
DRAM currently available =  104.625 MB.
Maximum ngspice program size =   25.156 MB.
Current ngspice program size =   25.156 MB.

