
Note: Compatibility modes selected: hs a


Circuit: SKY130 library cell nand2_4 A_to_Y__B=1

option SCALE: Scale is set to 1e-06 for instance and model parameters
Doing analysis at TEMP = 84.400796 and TNOM = 27.000000

Using KLU as Direct Linear Solver
 Reference value :  0.00000e+00
 Reference value :  2.45525e-08
 Reference value :  4.93411e-08
 Reference value :  7.40261e-08
 Reference value :  9.89061e-08
 Reference value :  1.23895e-07
 Reference value :  1.48360e-07
 Reference value :  1.72780e-07
 Reference value :  1.97291e-07
 Reference value :  2.21516e-07
 Reference value :  2.46106e-07
 Reference value :  2.70965e-07
 Reference value :  2.95410e-07
 Reference value :  3.20145e-07
No. of Data Rows : 68034

  Measurements for Transient Analysis

tphl                =  2.14713e-10 targ=  2.68965e-08 trig=  2.66818e-08
tplh                =  8.92841e-10 targ=  1.02938e-07 trig=  1.02045e-07
i_vdd_avg           =  -1.58025e-06 from=  1.00000e-08 to=  3.30005e-07
power_avg_uw        =  2.65742e+00


Total analysis time (seconds) = 3.54436

Total elapsed time (seconds) = 3.822 

Total DRAM available = 16384.000 MB.
DRAM currently available =   93.734 MB.
Maximum ngspice program size =   27.141 MB.
Current ngspice program size =   27.141 MB.

