
Note: Compatibility modes selected: hs a


Circuit: SKY130 library cell oai21_1 A1_to_Y__A2=0,B1=1

option SCALE: Scale is set to 1e-06 for instance and model parameters
Doing analysis at TEMP = -1.649208 and TNOM = 27.000000

Using KLU as Direct Linear Solver
 Reference value :  0.00000e+00
 Reference value :  5.64522e-08
 Reference value :  1.13932e-07
 Reference value :  1.71687e-07
 Reference value :  2.29122e-07
 Reference value :  2.86242e-07
No. of Data Rows : 68032

  Measurements for Transient Analysis

tphl                =  8.85727e-10 targ=  2.72131e-08 trig=  2.63273e-08
tplh                =  2.39994e-09 targ=  1.03382e-07 trig=  1.00982e-07
i_vdd_avg           =  -1.11573e-06 from=  1.00000e-08 to=  3.30002e-07
power_avg_uw        =  1.89601e+00


Total analysis time (seconds) = 1.53986

Total elapsed time (seconds) = 1.794 

Total DRAM available = 16384.000 MB.
DRAM currently available =   69.578 MB.
Maximum ngspice program size =   26.438 MB.
Current ngspice program size =   26.438 MB.

