
Note: Compatibility modes selected: hs a


Circuit: SKY130 library cell oai21_4 A1_to_Y__A2=0,B1=1

option SCALE: Scale is set to 1e-06 for instance and model parameters
Doing analysis at TEMP = 18.252047 and TNOM = 27.000000

Using KLU as Direct Linear Solver
 Reference value :  0.00000e+00
 Reference value :  1.63814e-08
 Reference value :  3.27820e-08
 Reference value :  4.92820e-08
 Reference value :  6.58220e-08
 Reference value :  8.22720e-08
 Reference value :  9.86120e-08
 Reference value :  1.14911e-07
 Reference value :  1.31321e-07
 Reference value :  1.47791e-07
 Reference value :  1.64296e-07
 Reference value :  1.80711e-07
 Reference value :  1.97252e-07
 Reference value :  2.13582e-07
 Reference value :  2.29967e-07
 Reference value :  2.46647e-07
 Reference value :  2.62806e-07
 Reference value :  2.79366e-07
 Reference value :  2.95936e-07
 Reference value :  3.12436e-07
 Reference value :  3.28716e-07
No. of Data Rows : 68032

  Measurements for Transient Analysis

tphl                =  1.53078e-10 targ=  2.60428e-08 trig=  2.58897e-08
tplh                =  9.63521e-10 targ=  1.00633e-07 trig=  9.96692e-08
i_vdd_avg           =  -1.65271e-06 from=  1.00000e-08 to=  3.30001e-07
power_avg_uw        =  3.08527e+00


Total analysis time (seconds) = 5.32884

Total elapsed time (seconds) = 5.614 

Total DRAM available = 16384.000 MB.
DRAM currently available =  119.172 MB.
Maximum ngspice program size =   26.297 MB.
Current ngspice program size =   26.297 MB.

