
Note: Compatibility modes selected: hs a


Circuit: SKY130 library cell oai21_4 A1_to_Y__A2=0,B1=1

option SCALE: Scale is set to 1e-06 for instance and model parameters
Doing analysis at TEMP = 0.505096 and TNOM = 27.000000

Using KLU as Direct Linear Solver
 Reference value :  0.00000e+00
 Reference value :  1.66214e-08
 Reference value :  3.34194e-08
 Reference value :  5.03094e-08
 Reference value :  6.71994e-08
 Reference value :  8.41094e-08
 Reference value :  1.01099e-07
 Reference value :  1.17871e-07
 Reference value :  1.34851e-07
 Reference value :  1.52141e-07
 Reference value :  1.70071e-07
 Reference value :  1.89798e-07
 Reference value :  2.11319e-07
 Reference value :  2.35024e-07
 Reference value :  2.61659e-07
 Reference value :  2.89891e-07
 Reference value :  3.18146e-07
No. of Data Rows : 68030

  Measurements for Transient Analysis

tphl                =  2.41729e-10 targ=  2.88052e-08 trig=  2.85634e-08
tplh                =  2.21652e-09 targ=  1.09907e-07 trig=  1.07690e-07
i_vdd_avg           =  -2.35222e-06 from=  1.00000e-08 to=  3.30001e-07
power_avg_uw        =  4.16077e+00


Total analysis time (seconds) = 4.22717

Total elapsed time (seconds) = 4.503 

Total DRAM available = 16384.000 MB.
DRAM currently available =  332.562 MB.
Maximum ngspice program size =   27.094 MB.
Current ngspice program size =   27.094 MB.

