
Note: Compatibility modes selected: hs a


Circuit: SKY130 library cell nand3_1 A_to_Y__B=1,C=1

option SCALE: Scale is set to 1e-06 for instance and model parameters
Doing analysis at TEMP = -15.195939 and TNOM = 27.000000

Using KLU as Direct Linear Solver
 Reference value :  0.00000e+00
 Reference value :  5.77335e-08
 Reference value :  1.15069e-07
 Reference value :  1.72939e-07
 Reference value :  2.29333e-07
 Reference value :  2.86774e-07
No. of Data Rows : 68032

  Measurements for Transient Analysis

tphl                =  1.54500e-09 targ=  3.06530e-08 trig=  2.91080e-08
tplh                =  3.48225e-09 targ=  1.12806e-07 trig=  1.09324e-07
i_vdd_avg           =  -2.10371e-06 from=  1.00000e-08 to=  3.30004e-07
power_avg_uw        =  3.83095e+00


Total analysis time (seconds) = 1.53226

Total elapsed time (seconds) = 1.792 

Total DRAM available = 16384.000 MB.
DRAM currently available =  105.250 MB.
Maximum ngspice program size =   27.094 MB.
Current ngspice program size =   27.094 MB.

