
Note: Compatibility modes selected: hs a


Circuit: SKY130 library cell nand2_1 A_to_Y__B=1

option SCALE: Scale is set to 1e-06 for instance and model parameters
Doing analysis at TEMP = 12.151185 and TNOM = 27.000000

Using KLU as Direct Linear Solver
 Reference value :  0.00000e+00
 Reference value :  8.27940e-08
 Reference value :  1.65035e-07
 Reference value :  2.46859e-07
 Reference value :  3.29525e-07
No. of Data Rows : 68030

  Measurements for Transient Analysis

tphl                =  6.57342e-10 targ=  2.53581e-08 trig=  2.47007e-08
tplh                =  1.03697e-09 targ=  9.71391e-08 trig=  9.61022e-08
i_vdd_avg           =  -1.45920e-06 from=  1.00000e-08 to=  3.30000e-07
power_avg_uw        =  2.63598e+00


Total analysis time (seconds) = 1.0561

Total elapsed time (seconds) = 1.320 

Total DRAM available = 16384.000 MB.
DRAM currently available =   78.641 MB.
Maximum ngspice program size =   25.891 MB.
Current ngspice program size =   25.891 MB.

