
Note: No compatibility mode selected!


Circuit: NOR2 seed characterization sample 4224007

Doing analysis at TEMP = 34.123600 and TNOM = 27.000000

Using SPARSE 1.3 as Direct Linear Solver

Initial Transient Solution
--------------------------

Node                                   Voltage
----                                   -------
vdd                                    1.74386
in                                           0
out                                    1.74386
pmid                                   1.74386
vin#branch                                   0
vdd#branch                         -4.0269e-12

 Reference value :  4.40989e-08
 Reference value :  1.03133e-07
No. of Data Rows : 60044

  Measurements for Transient Analysis

tphl                =  3.03784e-11 targ=  2.04435e-09 trig=  2.01397e-09
tplh                =  1.14296e-10 targ=  2.21562e-08 trig=  2.20419e-08
i_vdd_avg           =  -3.12479e-07 from=  5.00000e-09 to=  1.10001e-07
power_avg_uw        =  5.44919e-01


Total analysis time (seconds) = 0.490356

Total elapsed time (seconds) = 0.564 

Total DRAM available = 16384.000 MB.
DRAM currently available =  120.906 MB.
Maximum ngspice program size =   12.562 MB.
Current ngspice program size =   11.938 MB.

