
Note: No compatibility mode selected!


Circuit: NAND2 seed characterization sample 4224038

Doing analysis at TEMP = 10.000300 and TNOM = 27.000000

Using SPARSE 1.3 as Direct Linear Solver

Initial Transient Solution
--------------------------

Node                                   Voltage
----                                   -------
vdd                                     1.6397
in                                           0
out                                     1.6397
nmid                                 0.0095164
vin#branch                                   0
vdd#branch                         -1.6772e-12

 Reference value :  4.67619e-08
 Reference value :  1.07759e-07
No. of Data Rows : 60041

  Measurements for Transient Analysis

tphl                =  3.24569e-10 targ=  2.36500e-09 trig=  2.04043e-09
tplh                =  1.53080e-10 targ=  2.22744e-08 trig=  2.21213e-08
i_vdd_avg           =  -1.52643e-06 from=  5.00000e-09 to=  1.10001e-07
power_avg_uw        =  2.50289e+00


Total analysis time (seconds) = 0.473094

Total elapsed time (seconds) = 0.543 

Total DRAM available = 16384.000 MB.
DRAM currently available =  112.547 MB.
Maximum ngspice program size =   12.562 MB.
Current ngspice program size =   11.688 MB.

