
Note: No compatibility mode selected!


Circuit: INV seed characterization sample 4224025

Doing analysis at TEMP = -14.252700 and TNOM = 27.000000

Using SPARSE 1.3 as Direct Linear Solver

Initial Transient Solution
--------------------------

Node                                   Voltage
----                                   -------
vdd                                    1.75977
in                                           0
out                                    1.75977
vin#branch                                   0
vdd#branch                        -1.77379e-12

 Reference value :  7.30882e-08
No. of Data Rows : 60041

  Measurements for Transient Analysis

tphl                =  2.67563e-10 targ=  2.39786e-09 trig=  2.13030e-09
tplh                =  3.97680e-10 targ=  2.27886e-08 trig=  2.23909e-08
i_vdd_avg           =  -2.31085e-06 from=  5.00000e-09 to=  1.10000e-07
power_avg_uw        =  4.06657e+00


Total analysis time (seconds) = 0.294792

Total elapsed time (seconds) = 0.364 

Total DRAM available = 16384.000 MB.
DRAM currently available =  167.094 MB.
Maximum ngspice program size =   12.562 MB.
Current ngspice program size =   12.094 MB.

