
Note: No compatibility mode selected!


Circuit: NOR2 seed characterization sample 4224015

Doing analysis at TEMP = 85.093500 and TNOM = 27.000000

Using SPARSE 1.3 as Direct Linear Solver

Initial Transient Solution
--------------------------

Node                                   Voltage
----                                   -------
vdd                                    1.97124
in                                           0
out                                    1.97124
pmid                                   1.97124
vin#branch                                   0
vdd#branch                        -1.02811e-10

 Reference value :  4.73685e-08
 Reference value :  1.08716e-07
No. of Data Rows : 60047

  Measurements for Transient Analysis

tphl                =  9.27270e-11 targ=  2.31748e-09 trig=  2.22475e-09
tplh                =  3.38657e-10 targ=  2.30129e-08 trig=  2.26742e-08
i_vdd_avg           =  -3.11161e-06 from=  5.00000e-09 to=  1.10002e-07
power_avg_uw        =  6.13372e+00


Total analysis time (seconds) = 0.472408

Total elapsed time (seconds) = 0.541 

Total DRAM available = 16384.000 MB.
DRAM currently available =  149.703 MB.
Maximum ngspice program size =   12.562 MB.
Current ngspice program size =   11.625 MB.

