
Note: No compatibility mode selected!


Circuit: INV seed characterization sample 4224009

Doing analysis at TEMP = 11.436300 and TNOM = 27.000000

Using SPARSE 1.3 as Direct Linear Solver

Initial Transient Solution
--------------------------

Node                                   Voltage
----                                   -------
vdd                                    1.69659
in                                           0
out                                    1.69659
vin#branch                                   0
vdd#branch                        -1.74607e-12

 Reference value :  7.33131e-08
No. of Data Rows : 60044

  Measurements for Transient Analysis

tphl                =  7.47786e-10 targ=  2.94481e-09 trig=  2.19702e-09
tplh                =  9.05932e-10 targ=  2.34970e-08 trig=  2.25911e-08
i_vdd_avg           =  -4.74565e-06 from=  5.00000e-09 to=  1.10001e-07
power_avg_uw        =  8.05143e+00


Total analysis time (seconds) = 0.296766

Total elapsed time (seconds) = 0.365 

Total DRAM available = 16384.000 MB.
DRAM currently available =  126.422 MB.
Maximum ngspice program size =   12.562 MB.
Current ngspice program size =   12.156 MB.

