
Note: No compatibility mode selected!


Circuit: XOR2 seed characterization sample 4224032

Doing analysis at TEMP = 70.993700 and TNOM = 27.000000

Using SPARSE 1.3 as Direct Linear Solver

Initial Transient Solution
--------------------------

Node                                   Voltage
----                                   -------
vdd                                    1.73001
in                                           0
b                                      1.73001
abar                                   1.73001
bbar                               2.30763e-09
out                                    1.73001
vb#branch                                    0
vin#branch                         2.96409e-11
vdd#branch                         -6.0184e-11

 Reference value :  2.62748e-08
 Reference value :  6.07389e-08
 Reference value :  9.67829e-08
No. of Data Rows : 60044

  Measurements for Transient Analysis

tphl                =  2.30346e-10 targ=  2.41230e-09 trig=  2.18195e-09
tplh                =  2.30666e-10 targ=  2.27765e-08 trig=  2.25458e-08
i_vdd_avg           =  -3.59077e-06 from=  5.00000e-09 to=  1.10001e-07
power_avg_uw        =  6.21207e+00


Total analysis time (seconds) = 0.818134

Total elapsed time (seconds) = 0.890 

Total DRAM available = 16384.000 MB.
DRAM currently available =  124.781 MB.
Maximum ngspice program size =   13.047 MB.
Current ngspice program size =   13.047 MB.

