
Note: No compatibility mode selected!


Circuit: NOR2 seed characterization sample 4224031

Doing analysis at TEMP = -9.978350 and TNOM = 27.000000

Using SPARSE 1.3 as Direct Linear Solver

Initial Transient Solution
--------------------------

Node                                   Voltage
----                                   -------
vdd                                    1.62694
in                                           0
out                                    1.62694
pmid                                   1.62694
vin#branch                                   0
vdd#branch                        -3.28698e-12

 Reference value :  4.58328e-08
 Reference value :  1.05515e-07
No. of Data Rows : 60044

  Measurements for Transient Analysis

tphl                =  2.07812e-10 targ=  2.31772e-09 trig=  2.10991e-09
tplh                =  7.00873e-10 targ=  2.30306e-08 trig=  2.23297e-08
i_vdd_avg           =  -3.24380e-06 from=  5.00000e-09 to=  1.10001e-07
power_avg_uw        =  5.27747e+00


Total analysis time (seconds) = 0.48302

Total elapsed time (seconds) = 0.554 

Total DRAM available = 16384.000 MB.
DRAM currently available =  116.984 MB.
Maximum ngspice program size =   12.562 MB.
Current ngspice program size =   12.219 MB.

