
Note: No compatibility mode selected!


Circuit: NAND2 seed characterization sample 4224018

Doing analysis at TEMP = 43.446000 and TNOM = 27.000000

Using SPARSE 1.3 as Direct Linear Solver

Initial Transient Solution
--------------------------

Node                                   Voltage
----                                   -------
vdd                                    1.71189
in                                           0
out                                    1.71189
nmid                                 0.0404472
vin#branch                                   0
vdd#branch                        -2.00155e-12

 Reference value :  4.73838e-08
 Reference value :  1.09093e-07
No. of Data Rows : 60041

  Measurements for Transient Analysis

tphl                =  5.48648e-10 targ=  2.60003e-09 trig=  2.05138e-09
tplh                =  2.20638e-10 targ=  2.23748e-08 trig=  2.21541e-08
i_vdd_avg           =  -4.47080e-06 from=  5.00000e-09 to=  1.10001e-07
power_avg_uw        =  7.65351e+00


Total analysis time (seconds) = 0.467505

Total elapsed time (seconds) = 0.538 

Total DRAM available = 16384.000 MB.
DRAM currently available =  147.328 MB.
Maximum ngspice program size =   12.562 MB.
Current ngspice program size =   11.719 MB.

