
Note: No compatibility mode selected!


Circuit: NOR2 seed characterization sample 4224047

Doing analysis at TEMP = 96.161000 and TNOM = 27.000000

Using SPARSE 1.3 as Direct Linear Solver

Initial Transient Solution
--------------------------

Node                                   Voltage
----                                   -------
vdd                                    1.66398
in                                           0
out                                    1.66398
pmid                                   1.66398
vin#branch                                   0
vdd#branch                        -1.59721e-10

 Reference value :  4.41203e-08
 Reference value :  1.02622e-07
No. of Data Rows : 60047

  Measurements for Transient Analysis

tphl                =  1.82573e-10 targ=  2.42121e-09 trig=  2.23863e-09
tplh                =  6.62130e-10 targ=  2.33780e-08 trig=  2.27159e-08
i_vdd_avg           =  -5.11741e-06 from=  5.00000e-09 to=  1.10002e-07
power_avg_uw        =  8.51528e+00


Total analysis time (seconds) = 0.492396

Total elapsed time (seconds) = 0.567 

Total DRAM available = 16384.000 MB.
DRAM currently available =  121.312 MB.
Maximum ngspice program size =   12.875 MB.
Current ngspice program size =   12.875 MB.

