
Note: No compatibility mode selected!


Circuit: INV seed characterization sample 4301021

Doing analysis at TEMP = 81.478400 and TNOM = 27.000000

Using SPARSE 1.3 as Direct Linear Solver

Initial Transient Solution
--------------------------

Node                                   Voltage
----                                   -------
vdd                                    1.80297
in                                           0
out                                    1.80297
vin#branch                                   0
vdd#branch                        -3.55624e-10

 Reference value :  7.20049e-08
No. of Data Rows : 60044

  Measurements for Transient Analysis

tphl                =  1.66002e-10 targ=  2.31997e-09 trig=  2.15396e-09
tplh                =  1.98104e-10 targ=  2.26600e-08 trig=  2.24619e-08
i_vdd_avg           =  -4.15450e-06 from=  5.00000e-09 to=  1.10001e-07
power_avg_uw        =  7.49045e+00


Total analysis time (seconds) = 0.298152

Total elapsed time (seconds) = 0.368 

Total DRAM available = 16384.000 MB.
DRAM currently available =   90.062 MB.
Maximum ngspice program size =   12.562 MB.
Current ngspice program size =   11.688 MB.

