
Note: No compatibility mode selected!


Circuit: NOR2 seed characterization sample 4301019

Doing analysis at TEMP = 67.778300 and TNOM = 27.000000

Using SPARSE 1.3 as Direct Linear Solver

Initial Transient Solution
--------------------------

Node                                   Voltage
----                                   -------
vdd                                    1.64491
in                                           0
out                                    1.64491
pmid                                   1.64491
vin#branch                                   0
vdd#branch                        -5.45728e-11

 Reference value :  4.45132e-08
 Reference value :  1.03013e-07
No. of Data Rows : 60044

  Measurements for Transient Analysis

tphl                =  1.74638e-10 targ=  2.37574e-09 trig=  2.20110e-09
tplh                =  7.80440e-10 targ=  2.33837e-08 trig=  2.26033e-08
i_vdd_avg           =  -9.86047e-07 from=  5.00000e-09 to=  1.10001e-07
power_avg_uw        =  1.62196e+00


Total analysis time (seconds) = 0.495838

Total elapsed time (seconds) = 0.567 

Total DRAM available = 16384.000 MB.
DRAM currently available =   78.266 MB.
Maximum ngspice program size =   12.562 MB.
Current ngspice program size =   12.094 MB.

