
Note: No compatibility mode selected!


Circuit: INV seed characterization sample 4301033

Doing analysis at TEMP = 9.034240 and TNOM = 27.000000

Using SPARSE 1.3 as Direct Linear Solver

Initial Transient Solution
--------------------------

Node                                   Voltage
----                                   -------
vdd                                    1.71514
in                                           0
out                                    1.71514
vin#branch                                   0
vdd#branch                        -3.79001e-12

 Reference value :  7.28843e-08
No. of Data Rows : 60041

  Measurements for Transient Analysis

tphl                =  2.15227e-10 targ=  2.33456e-09 trig=  2.11933e-09
tplh                =  2.66273e-10 targ=  2.26243e-08 trig=  2.23580e-08
i_vdd_avg           =  -4.52886e-06 from=  5.00000e-09 to=  1.10000e-07
power_avg_uw        =  7.76762e+00


Total analysis time (seconds) = 0.291151

Total elapsed time (seconds) = 0.363 

Total DRAM available = 16384.000 MB.
DRAM currently available =   89.953 MB.
Maximum ngspice program size =   13.203 MB.
Current ngspice program size =   13.203 MB.

