
Note: No compatibility mode selected!


Circuit: XOR2 seed characterization sample 4301012

Doing analysis at TEMP = 18.447400 and TNOM = 27.000000

Using SPARSE 1.3 as Direct Linear Solver

Initial Transient Solution
--------------------------

Node                                   Voltage
----                                   -------
vdd                                     1.6254
in                                           0
b                                       1.6254
abar                                    1.6254
bbar                               1.11716e-09
out                                     1.6254
vb#branch                                    0
vin#branch                         1.08673e-11
vdd#branch                          -2.622e-11

 Reference value :  2.66083e-08
 Reference value :  6.14387e-08
 Reference value :  9.82447e-08
No. of Data Rows : 60044

  Measurements for Transient Analysis

tphl                =  2.12560e-10 targ=  2.23439e-09 trig=  2.02183e-09
tplh                =  2.49509e-10 targ=  2.23150e-08 trig=  2.20655e-08
i_vdd_avg           =  -5.66470e-06 from=  5.00000e-09 to=  1.10000e-07
power_avg_uw        =  9.20741e+00


Total analysis time (seconds) = 0.807599

Total elapsed time (seconds) = 0.879 

Total DRAM available = 16384.000 MB.
DRAM currently available =  123.453 MB.
Maximum ngspice program size =   12.578 MB.
Current ngspice program size =   11.969 MB.

