
Note: No compatibility mode selected!


Circuit: XOR2 seed characterization sample 4301036

Doing analysis at TEMP = 22.023900 and TNOM = 27.000000

Using SPARSE 1.3 as Direct Linear Solver

Initial Transient Solution
--------------------------

Node                                   Voltage
----                                   -------
vdd                                    1.66305
in                                           0
b                                      1.66305
abar                                   1.66305
bbar                               1.57504e-09
out                                    1.66305
vb#branch                                    0
vin#branch                         1.07808e-11
vdd#branch                        -2.61659e-11

 Reference value :  2.63942e-08
 Reference value :  6.13476e-08
 Reference value :  9.82656e-08
No. of Data Rows : 60041

  Measurements for Transient Analysis

tphl                =  2.40715e-10 targ=  2.39303e-09 trig=  2.15231e-09
tplh                =  2.54422e-10 targ=  2.27114e-08 trig=  2.24569e-08
i_vdd_avg           =  -3.85384e-06 from=  5.00000e-09 to=  1.10000e-07
power_avg_uw        =  6.40914e+00


Total analysis time (seconds) = 0.805808

Total elapsed time (seconds) = 0.876 

Total DRAM available = 16384.000 MB.
DRAM currently available =  119.766 MB.
Maximum ngspice program size =   12.578 MB.
Current ngspice program size =   11.969 MB.

