
Note: No compatibility mode selected!


Circuit: INV seed characterization sample 4301029

Doing analysis at TEMP = 95.808100 and TNOM = 27.000000

Using SPARSE 1.3 as Direct Linear Solver

Initial Transient Solution
--------------------------

Node                                   Voltage
----                                   -------
vdd                                    1.82726
in                                           0
out                                    1.82726
vin#branch                                   0
vdd#branch                        -2.22044e-10

 Reference value :  6.71362e-08
No. of Data Rows : 60041

  Measurements for Transient Analysis

tphl                =  3.26175e-10 targ=  2.46648e-09 trig=  2.14030e-09
tplh                =  4.30766e-10 targ=  2.28517e-08 trig=  2.24209e-08
i_vdd_avg           =  -4.11454e-06 from=  5.00000e-09 to=  1.10000e-07
power_avg_uw        =  7.51834e+00


Total analysis time (seconds) = 0.29146

Total elapsed time (seconds) = 0.377 

Total DRAM available = 16384.000 MB.
DRAM currently available =   88.266 MB.
Maximum ngspice program size =   13.812 MB.
Current ngspice program size =   13.812 MB.

