
Note: No compatibility mode selected!


Circuit: XOR2 seed characterization sample 4301008

Doing analysis at TEMP = 76.840900 and TNOM = 27.000000

Using SPARSE 1.3 as Direct Linear Solver

Initial Transient Solution
--------------------------

Node                                   Voltage
----                                   -------
vdd                                     1.9092
in                                           0
b                                       1.9092
abar                                    1.9092
bbar                                2.0683e-08
out                                     1.9092
vb#branch                                    0
vin#branch                         5.47241e-10
vdd#branch                        -9.84093e-10

 Reference value :  2.69214e-08
 Reference value :  6.09802e-08
 Reference value :  9.78622e-08
No. of Data Rows : 60047

  Measurements for Transient Analysis

tphl                =  2.64960e-10 targ=  2.49555e-09 trig=  2.23059e-09
tplh                =  2.89648e-10 targ=  2.29814e-08 trig=  2.26918e-08
i_vdd_avg           =  -7.71819e-06 from=  5.00000e-09 to=  1.10001e-07
power_avg_uw        =  1.47356e+01


Total analysis time (seconds) = 0.812099

Total elapsed time (seconds) = 0.882 

Total DRAM available = 16384.000 MB.
DRAM currently available =  105.094 MB.
Maximum ngspice program size =   12.594 MB.
Current ngspice program size =   12.406 MB.

