
Note: No compatibility mode selected!


Circuit: INV seed characterization sample 4301001

Doing analysis at TEMP = 10.791400 and TNOM = 27.000000

Using SPARSE 1.3 as Direct Linear Solver

Initial Transient Solution
--------------------------

Node                                   Voltage
----                                   -------
vdd                                    1.65074
in                                           0
out                                    1.65074
vin#branch                                   0
vdd#branch                        -4.11066e-12

 Reference value :  7.44474e-08
No. of Data Rows : 60047

  Measurements for Transient Analysis

tphl                =  2.41624e-10 targ=  2.45822e-09 trig=  2.21659e-09
tplh                =  2.76828e-10 targ=  2.29266e-08 trig=  2.26498e-08
i_vdd_avg           =  -4.03278e-06 from=  5.00000e-09 to=  1.10001e-07
power_avg_uw        =  6.65707e+00


Total analysis time (seconds) = 0.289366

Total elapsed time (seconds) = 0.358 

Total DRAM available = 16384.000 MB.
DRAM currently available =   99.469 MB.
Maximum ngspice program size =   12.562 MB.
Current ngspice program size =   11.906 MB.

