
Note: No compatibility mode selected!


Circuit: XOR2 seed characterization sample 4301044

Doing analysis at TEMP = -2.446060 and TNOM = 27.000000

Using SPARSE 1.3 as Direct Linear Solver

Initial Transient Solution
--------------------------

Node                                   Voltage
----                                   -------
vdd                                    1.83008
in                                           0
b                                      1.83008
abar                                   1.83008
bbar                                7.2692e-10
out                                    1.83008
vb#branch                                    0
vin#branch                          4.4737e-12
vdd#branch                        -1.57288e-11

 Reference value :  2.58689e-08
 Reference value :  6.06749e-08
 Reference value :  9.74569e-08
No. of Data Rows : 60044

  Measurements for Transient Analysis

tphl                =  2.26713e-10 targ=  2.39469e-09 trig=  2.16797e-09
tplh                =  2.77362e-10 targ=  2.27813e-08 trig=  2.25039e-08
i_vdd_avg           =  -7.66814e-06 from=  5.00000e-09 to=  1.10001e-07
power_avg_uw        =  1.40333e+01


Total analysis time (seconds) = 0.808261

Total elapsed time (seconds) = 0.883 

Total DRAM available = 16384.000 MB.
DRAM currently available =   97.281 MB.
Maximum ngspice program size =   12.578 MB.
Current ngspice program size =   11.625 MB.

