
Note: No compatibility mode selected!


Circuit: NOR2 seed characterization sample 4301011

Doing analysis at TEMP = 15.870700 and TNOM = 27.000000

Using SPARSE 1.3 as Direct Linear Solver

Initial Transient Solution
--------------------------

Node                                   Voltage
----                                   -------
vdd                                    1.74469
in                                           0
out                                    1.74469
pmid                                   1.74469
vin#branch                                   0
vdd#branch                        -6.40281e-12

 Reference value :  4.32290e-08
 Reference value :  1.03355e-07
No. of Data Rows : 60044

  Measurements for Transient Analysis

tphl                =  7.35066e-11 targ=  2.29552e-09 trig=  2.22202e-09
tplh                =  2.58549e-10 targ=  2.29246e-08 trig=  2.26660e-08
i_vdd_avg           =  -7.28700e-07 from=  5.00000e-09 to=  1.10001e-07
power_avg_uw        =  1.27136e+00


Total analysis time (seconds) = 0.481682

Total elapsed time (seconds) = 0.563 

Total DRAM available = 16384.000 MB.
DRAM currently available =   92.031 MB.
Maximum ngspice program size =   12.891 MB.
Current ngspice program size =   12.016 MB.

