
Note: No compatibility mode selected!


Circuit: NAND2 seed characterization sample 4301018

Doing analysis at TEMP = -5.179180 and TNOM = 27.000000

Using SPARSE 1.3 as Direct Linear Solver

Initial Transient Solution
--------------------------

Node                                   Voltage
----                                   -------
vdd                                    1.83736
in                                           0
out                                    1.83736
nmid                                 0.0435942
vin#branch                                   0
vdd#branch                         -2.1067e-12

 Reference value :  4.52933e-08
 Reference value :  1.04548e-07
No. of Data Rows : 60044

  Measurements for Transient Analysis

tphl                =  1.76974e-10 targ=  2.26514e-09 trig=  2.08817e-09
tplh                =  1.06816e-10 targ=  2.23713e-08 trig=  2.22645e-08
i_vdd_avg           =  -4.95303e-06 from=  5.00000e-09 to=  1.10002e-07
power_avg_uw        =  9.10049e+00


Total analysis time (seconds) = 0.487482

Total elapsed time (seconds) = 0.558 

Total DRAM available = 16384.000 MB.
DRAM currently available =   69.672 MB.
Maximum ngspice program size =   12.562 MB.
Current ngspice program size =   11.969 MB.

