
Note: No compatibility mode selected!


Circuit: NAND2 seed characterization sample 4301038

Doing analysis at TEMP = 2.967410 and TNOM = 27.000000

Using SPARSE 1.3 as Direct Linear Solver

Initial Transient Solution
--------------------------

Node                                   Voltage
----                                   -------
vdd                                    1.93534
in                                           0
out                                    1.93534
nmid                                 0.0497428
vin#branch                                   0
vdd#branch                        -2.37466e-12

 Reference value :  4.17461e-08
 Reference value :  1.02396e-07
No. of Data Rows : 60041

  Measurements for Transient Analysis

tphl                =  1.50938e-10 targ=  2.21822e-09 trig=  2.06728e-09
tplh                =  6.70511e-11 targ=  2.22689e-08 trig=  2.22018e-08
i_vdd_avg           =  -4.34635e-06 from=  5.00000e-09 to=  1.10000e-07
power_avg_uw        =  8.41166e+00


Total analysis time (seconds) = 0.476672

Total elapsed time (seconds) = 0.565 

Total DRAM available = 16384.000 MB.
DRAM currently available =  105.344 MB.
Maximum ngspice program size =   13.016 MB.
Current ngspice program size =   12.438 MB.

