
Note: No compatibility mode selected!


Circuit: NOR2 seed characterization sample 4301023

Doing analysis at TEMP = -17.052300 and TNOM = 27.000000

Using SPARSE 1.3 as Direct Linear Solver

Initial Transient Solution
--------------------------

Node                                   Voltage
----                                   -------
vdd                                    1.68186
in                                           0
out                                    1.68186
pmid                                   1.68186
vin#branch                                   0
vdd#branch                        -4.06698e-12

 Reference value :  4.62842e-08
 Reference value :  1.06165e-07
No. of Data Rows : 60047

  Measurements for Transient Analysis

tphl                =  1.51243e-10 targ=  2.36684e-09 trig=  2.21560e-09
tplh                =  3.86128e-10 targ=  2.30329e-08 trig=  2.26468e-08
i_vdd_avg           =  -5.71799e-06 from=  5.00000e-09 to=  1.10001e-07
power_avg_uw        =  9.61686e+00


Total analysis time (seconds) = 0.480041

Total elapsed time (seconds) = 0.550 

Total DRAM available = 16384.000 MB.
DRAM currently available =  108.047 MB.
Maximum ngspice program size =   12.562 MB.
Current ngspice program size =   11.875 MB.

