
Note: No compatibility mode selected!


Circuit: NOR2 seed characterization sample 4301015

Doing analysis at TEMP = 79.367000 and TNOM = 27.000000

Using SPARSE 1.3 as Direct Linear Solver

Initial Transient Solution
--------------------------

Node                                   Voltage
----                                   -------
vdd                                    1.94196
in                                           0
out                                    1.94196
pmid                                   1.94196
vin#branch                                   0
vdd#branch                        -7.72874e-10

 Reference value :  4.45625e-08
 Reference value :  1.04138e-07
No. of Data Rows : 60044

  Measurements for Transient Analysis

tphl                =  1.12409e-10 targ=  2.27116e-09 trig=  2.15875e-09
tplh                =  3.12310e-10 targ=  2.27886e-08 trig=  2.24763e-08
i_vdd_avg           =  -5.79258e-06 from=  5.00000e-09 to=  1.10000e-07
power_avg_uw        =  1.12490e+01


Total analysis time (seconds) = 0.489613

Total elapsed time (seconds) = 0.559 

Total DRAM available = 16384.000 MB.
DRAM currently available =  114.344 MB.
Maximum ngspice program size =   12.562 MB.
Current ngspice program size =   11.844 MB.

