
Note: No compatibility mode selected!


Circuit: NOR2 seed characterization sample 4301007

Doing analysis at TEMP = 50.301100 and TNOM = 27.000000

Using SPARSE 1.3 as Direct Linear Solver

Initial Transient Solution
--------------------------

Node                                   Voltage
----                                   -------
vdd                                    1.95752
in                                           0
out                                    1.95752
pmid                                   1.95752
vin#branch                                   0
vdd#branch                        -1.49814e-10

 Reference value :  4.63882e-08
 Reference value :  1.05219e-07
No. of Data Rows : 60047

  Measurements for Transient Analysis

tphl                =  4.20188e-11 targ=  2.07360e-09 trig=  2.03158e-09
tplh                =  1.56053e-10 targ=  2.22508e-08 trig=  2.20948e-08
i_vdd_avg           =  -2.78171e-06 from=  5.00000e-09 to=  1.10001e-07
power_avg_uw        =  5.44525e+00


Total analysis time (seconds) = 0.48785

Total elapsed time (seconds) = 0.557 

Total DRAM available = 16384.000 MB.
DRAM currently available =   89.469 MB.
Maximum ngspice program size =   12.562 MB.
Current ngspice program size =   11.875 MB.

