
Note: No compatibility mode selected!


Circuit: NAND2 seed characterization sample 4301022

Doing analysis at TEMP = 55.957200 and TNOM = 27.000000

Using SPARSE 1.3 as Direct Linear Solver

Initial Transient Solution
--------------------------

Node                                   Voltage
----                                   -------
vdd                                    1.64712
in                                           0
out                                    1.64712
nmid                                 0.0524719
vin#branch                                   0
vdd#branch                         -1.2971e-11

 Reference value :  4.61533e-08
 Reference value :  1.06178e-07
No. of Data Rows : 60044

  Measurements for Transient Analysis

tphl                =  3.08227e-10 targ=  2.50539e-09 trig=  2.19716e-09
tplh                =  1.76807e-10 targ=  2.27683e-08 trig=  2.25915e-08
i_vdd_avg           =  -3.54997e-06 from=  5.00000e-09 to=  1.10002e-07
power_avg_uw        =  5.84722e+00


Total analysis time (seconds) = 0.479525

Total elapsed time (seconds) = 0.550 

Total DRAM available = 16384.000 MB.
DRAM currently available =   99.844 MB.
Maximum ngspice program size =   12.562 MB.
Current ngspice program size =   11.891 MB.

