
Note: No compatibility mode selected!


Circuit: INV seed characterization sample 4301025

Doing analysis at TEMP = 65.843600 and TNOM = 27.000000

Using SPARSE 1.3 as Direct Linear Solver

Initial Transient Solution
--------------------------

Node                                   Voltage
----                                   -------
vdd                                    1.62384
in                                           0
out                                    1.62384
vin#branch                                   0
vdd#branch                        -3.57585e-11

 Reference value :  7.36800e-08
No. of Data Rows : 60044

  Measurements for Transient Analysis

tphl                =  1.48305e-10 targ=  2.20355e-09 trig=  2.05524e-09
tplh                =  1.44491e-10 targ=  2.23102e-08 trig=  2.21657e-08
i_vdd_avg           =  -1.33334e-06 from=  5.00000e-09 to=  1.10002e-07
power_avg_uw        =  2.16514e+00


Total analysis time (seconds) = 0.289986

Total elapsed time (seconds) = 0.359 

Total DRAM available = 16384.000 MB.
DRAM currently available =   88.594 MB.
Maximum ngspice program size =   12.562 MB.
Current ngspice program size =   11.781 MB.

