
Note: No compatibility mode selected!


Circuit: INV seed characterization sample 4301037

Doing analysis at TEMP = 94.636200 and TNOM = 27.000000

Using SPARSE 1.3 as Direct Linear Solver

Initial Transient Solution
--------------------------

Node                                   Voltage
----                                   -------
vdd                                    1.79478
in                                           0
out                                    1.79478
vin#branch                                   0
vdd#branch                        -7.06679e-10

 Reference value :  7.16723e-08
No. of Data Rows : 60041

  Measurements for Transient Analysis

tphl                =  1.22499e-10 targ=  2.34581e-09 trig=  2.22332e-09
tplh                =  1.79833e-10 targ=  2.28498e-08 trig=  2.26699e-08
i_vdd_avg           =  -2.30571e-06 from=  5.00000e-09 to=  1.10000e-07
power_avg_uw        =  4.13825e+00


Total analysis time (seconds) = 0.298157

Total elapsed time (seconds) = 0.371 

Total DRAM available = 16384.000 MB.
DRAM currently available =   92.109 MB.
Maximum ngspice program size =   13.328 MB.
Current ngspice program size =   13.328 MB.

