
Note: No compatibility mode selected!


Circuit: INV seed characterization sample 6420016

Doing analysis at TEMP = 20.137200 and TNOM = 27.000000

Using SPARSE 1.3 as Direct Linear Solver

Initial Transient Solution
--------------------------

Node                                   Voltage
----                                   -------
vdd                                    1.80638
in                                           0
out                                    1.80638
vin#branch                                   0
vdd#branch                        -2.08057e-12

 Reference value :  5.49736e-08
No. of Data Rows : 60041

  Measurements for Transient Analysis

tphl                =  1.60058e-10 targ=  2.27437e-09 trig=  2.11431e-09
tplh                =  1.70998e-10 targ=  2.25139e-08 trig=  2.23429e-08
i_vdd_avg           =  -2.33351e-06 from=  5.00000e-09 to=  1.10000e-07
power_avg_uw        =  4.21521e+00


Total analysis time (seconds) = 0.321184

Total elapsed time (seconds) = 0.413 

Total DRAM available = 16384.000 MB.
DRAM currently available =  107.250 MB.
Maximum ngspice program size =   12.625 MB.
Current ngspice program size =   12.312 MB.

