
Note: No compatibility mode selected!


Circuit: NAND2 seed characterization sample 6420035

Doing analysis at TEMP = 95.176200 and TNOM = 27.000000

Using SPARSE 1.3 as Direct Linear Solver

Initial Transient Solution
--------------------------

Node                                   Voltage
----                                   -------
vdd                                    1.65267
in                                           0
out                                    1.65267
nmid                                 0.0506345
vin#branch                                   0
vdd#branch                        -1.73613e-11

 Reference value :  3.58244e-08
 Reference value :  9.33697e-08
No. of Data Rows : 60041

  Measurements for Transient Analysis

tphl                =  3.12256e-10 targ=  2.49161e-09 trig=  2.17936e-09
tplh                =  1.68832e-10 targ=  2.27069e-08 trig=  2.25381e-08
i_vdd_avg           =  -3.61700e-06 from=  5.00000e-09 to=  1.10000e-07
power_avg_uw        =  5.97771e+00


Total analysis time (seconds) = 0.521224

Total elapsed time (seconds) = 0.607 

Total DRAM available = 16384.000 MB.
DRAM currently available =  116.844 MB.
Maximum ngspice program size =   13.250 MB.
Current ngspice program size =   13.016 MB.

