
Note: No compatibility mode selected!


Circuit: NAND2 seed characterization sample 4212048

Doing analysis at TEMP = 69.816400 and TNOM = 27.000000

Using SPARSE 1.3 as Direct Linear Solver

Initial Transient Solution
--------------------------

Node                                   Voltage
----                                   -------
vdd                                    1.69137
in                                           0
out                                    1.69137
nmid                                 0.0415969
vin#branch                                   0
vdd#branch                        -2.16783e-12

 Reference value :  4.10873e-08
 Reference value :  9.79221e-08
No. of Data Rows : 60047

  Measurements for Transient Analysis

tphl                =  3.09776e-10 targ=  2.42635e-09 trig=  2.11657e-09
tplh                =  1.70530e-10 targ=  2.25202e-08 trig=  2.23497e-08
i_vdd_avg           =  -3.80335e-06 from=  5.00000e-09 to=  1.10001e-07
power_avg_uw        =  6.43287e+00


Total analysis time (seconds) = 0.507178

Total elapsed time (seconds) = 0.583 

Total DRAM available = 16384.000 MB.
DRAM currently available =  186.562 MB.
Maximum ngspice program size =   12.984 MB.
Current ngspice program size =   12.078 MB.

