
Note: No compatibility mode selected!


Circuit: XOR2 seed characterization sample 4212013

Doing analysis at TEMP = 30.730300 and TNOM = 27.000000

Using SPARSE 1.3 as Direct Linear Solver

Initial Transient Solution
--------------------------

Node                                   Voltage
----                                   -------
vdd                                    1.65842
in                                           0
b                                      1.65842
abar                                   1.65842
bbar                               3.38192e-09
out                                    1.65842
vb#branch                                    0
vin#branch                         1.70107e-12
vdd#branch                        -1.00676e-11

 Reference value :  2.54838e-08
 Reference value :  6.02114e-08
 Reference value :  9.65354e-08
No. of Data Rows : 60044

  Measurements for Transient Analysis

tphl                =  7.39208e-10 targ=  2.84242e-09 trig=  2.10321e-09
tplh                =  8.01481e-10 targ=  2.31111e-08 trig=  2.23096e-08
i_vdd_avg           =  -4.62519e-06 from=  5.00000e-09 to=  1.10002e-07
power_avg_uw        =  7.67051e+00


Total analysis time (seconds) = 0.815314

Total elapsed time (seconds) = 0.890 

Total DRAM available = 16384.000 MB.
DRAM currently available =  241.688 MB.
Maximum ngspice program size =   12.578 MB.
Current ngspice program size =   11.875 MB.

