
Note: No compatibility mode selected!


Circuit: NOR2 seed characterization sample 4212030

Doing analysis at TEMP = 58.702800 and TNOM = 27.000000

Using SPARSE 1.3 as Direct Linear Solver

Initial Transient Solution
--------------------------

Node                                   Voltage
----                                   -------
vdd                                    1.81961
in                                           0
out                                    1.81961
pmid                                   1.81961
vin#branch                                   0
vdd#branch                        -5.08393e-12

 Reference value :  3.85029e-08
 Reference value :  9.08950e-08
No. of Data Rows : 60044

  Measurements for Transient Analysis

tphl                =  2.28248e-10 targ=  2.47423e-09 trig=  2.24598e-09
tplh                =  8.42864e-10 targ=  2.35808e-08 trig=  2.27379e-08
i_vdd_avg           =  -6.19704e-06 from=  5.00000e-09 to=  1.10001e-07
power_avg_uw        =  1.12762e+01


Total analysis time (seconds) = 0.552008

Total elapsed time (seconds) = 0.631 

Total DRAM available = 16384.000 MB.
DRAM currently available =  209.656 MB.
Maximum ngspice program size =   12.562 MB.
Current ngspice program size =   11.688 MB.

