
Note: No compatibility mode selected!


Circuit: NOR2 seed characterization sample 4212012

Doing analysis at TEMP = 30.246600 and TNOM = 27.000000

Using SPARSE 1.3 as Direct Linear Solver

Initial Transient Solution
--------------------------

Node                                   Voltage
----                                   -------
vdd                                    1.86839
in                                           0
out                                    1.86839
pmid                                   1.86839
vin#branch                                   0
vdd#branch                        -3.94348e-12

 Reference value :  4.06418e-08
 Reference value :  9.59034e-08
No. of Data Rows : 60044

  Measurements for Transient Analysis

tphl                =  1.65004e-10 targ=  2.32120e-09 trig=  2.15619e-09
tplh                =  4.70121e-10 targ=  2.29387e-08 trig=  2.24686e-08
i_vdd_avg           =  -6.39325e-06 from=  5.00000e-09 to=  1.10002e-07
power_avg_uw        =  1.19451e+01


Total analysis time (seconds) = 0.532499

Total elapsed time (seconds) = 0.619 

Total DRAM available = 16384.000 MB.
DRAM currently available =  193.797 MB.
Maximum ngspice program size =   16.766 MB.
Current ngspice program size =   16.766 MB.

