
Note: No compatibility mode selected!


Circuit: NOR2 seed characterization sample 4212034

Doing analysis at TEMP = 45.168400 and TNOM = 27.000000

Using SPARSE 1.3 as Direct Linear Solver

Initial Transient Solution
--------------------------

Node                                   Voltage
----                                   -------
vdd                                    1.96797
in                                           0
out                                    1.96797
pmid                                   1.96797
vin#branch                                   0
vdd#branch                        -4.11445e-12

 Reference value :  4.27788e-08
 Reference value :  1.02457e-07
No. of Data Rows : 60044

  Measurements for Transient Analysis

tphl                =  1.21510e-10 targ=  2.21942e-09 trig=  2.09791e-09
tplh                =  3.28537e-10 targ=  2.26223e-08 trig=  2.22937e-08
i_vdd_avg           =  -1.78411e-06 from=  5.00000e-09 to=  1.10001e-07
power_avg_uw        =  3.51108e+00


Total analysis time (seconds) = 0.490879

Total elapsed time (seconds) = 0.574 

Total DRAM available = 16384.000 MB.
DRAM currently available =  205.641 MB.
Maximum ngspice program size =   13.000 MB.
Current ngspice program size =   12.750 MB.

