
Note: No compatibility mode selected!


Circuit: XOR2 seed characterization sample 4212028

Doing analysis at TEMP = 99.545200 and TNOM = 27.000000

Using SPARSE 1.3 as Direct Linear Solver

Initial Transient Solution
--------------------------

Node                                   Voltage
----                                   -------
vdd                                    1.90838
in                                           0
b                                      1.90838
abar                                   1.90838
bbar                               2.66427e-09
out                                    1.90838
vb#branch                                    0
vin#branch                          1.3576e-11
vdd#branch                        -3.22555e-11

 Reference value :  2.24066e-08
 Reference value :  5.29810e-08
 Reference value :  8.25870e-08
 Reference value :  1.12131e-07
No. of Data Rows : 60044

  Measurements for Transient Analysis

tphl                =  3.17530e-10 targ=  2.52053e-09 trig=  2.20300e-09
tplh                =  3.37900e-10 targ=  2.29469e-08 trig=  2.26090e-08
i_vdd_avg           =  -3.89424e-06 from=  5.00000e-09 to=  1.10001e-07
power_avg_uw        =  7.43169e+00


Total analysis time (seconds) = 0.979345

Total elapsed time (seconds) = 1.057 

Total DRAM available = 16384.000 MB.
DRAM currently available =  201.250 MB.
Maximum ngspice program size =   12.578 MB.
Current ngspice program size =   11.844 MB.

