
Note: No compatibility mode selected!


Circuit: XOR2 seed characterization sample 4212043

Doing analysis at TEMP = 38.870600 and TNOM = 27.000000

Using SPARSE 1.3 as Direct Linear Solver

Initial Transient Solution
--------------------------

Node                                   Voltage
----                                   -------
vdd                                    1.68987
in                                           0
b                                      1.68987
abar                                   1.68987
bbar                               1.29887e-09
out                                    1.68987
vb#branch                                    0
vin#branch                         1.90039e-12
vdd#branch                        -1.05561e-11

 Reference value :  2.16424e-08
 Reference value :  5.15724e-08
 Reference value :  8.55044e-08
No. of Data Rows : 60047

  Measurements for Transient Analysis

tphl                =  4.93763e-10 targ=  2.66347e-09 trig=  2.16971e-09
tplh                =  5.63686e-10 targ=  2.30728e-08 trig=  2.25091e-08
i_vdd_avg           =  -7.30447e-06 from=  5.00000e-09 to=  1.10002e-07
power_avg_uw        =  1.23436e+01


Total analysis time (seconds) = 0.891647

Total elapsed time (seconds) = 0.973 

Total DRAM available = 16384.000 MB.
DRAM currently available =  180.938 MB.
Maximum ngspice program size =   12.578 MB.
Current ngspice program size =   12.078 MB.

