
Note: No compatibility mode selected!


Circuit: XOR2 seed characterization sample 4212042

Doing analysis at TEMP = 14.083600 and TNOM = 27.000000

Using SPARSE 1.3 as Direct Linear Solver

Initial Transient Solution
--------------------------

Node                                   Voltage
----                                   -------
vdd                                    1.67496
in                                           0
b                                      1.67496
abar                                   1.67496
bbar                               2.06647e-09
out                                    1.67496
vb#branch                                    0
vin#branch                         1.69681e-12
vdd#branch                        -1.01306e-11

 Reference value :  2.14459e-08
 Reference value :  5.12419e-08
 Reference value :  8.50479e-08
No. of Data Rows : 60041

  Measurements for Transient Analysis

tphl                =  3.36275e-10 targ=  2.49771e-09 trig=  2.16144e-09
tplh                =  4.06995e-10 targ=  2.28913e-08 trig=  2.24843e-08
i_vdd_avg           =  -2.54211e-06 from=  5.00000e-09 to=  1.10001e-07
power_avg_uw        =  4.25794e+00


Total analysis time (seconds) = 0.893434

Total elapsed time (seconds) = 0.976 

Total DRAM available = 16384.000 MB.
DRAM currently available =  180.938 MB.
Maximum ngspice program size =   12.656 MB.
Current ngspice program size =   12.125 MB.

