
Note: No compatibility mode selected!


Circuit: NAND2 seed characterization sample 4212041

Doing analysis at TEMP = -9.046930 and TNOM = 27.000000

Using SPARSE 1.3 as Direct Linear Solver

Initial Transient Solution
--------------------------

Node                                   Voltage
----                                   -------
vdd                                    1.82304
in                                           0
out                                    1.82304
nmid                               0.000385495
vin#branch                                   0
vdd#branch                        -1.83415e-12

 Reference value :  3.75995e-08
 Reference value :  8.99403e-08
No. of Data Rows : 60047

  Measurements for Transient Analysis

tphl                =  3.53311e-10 targ=  2.50494e-09 trig=  2.15163e-09
tplh                =  1.78435e-10 targ=  2.26333e-08 trig=  2.24549e-08
i_vdd_avg           =  -3.63563e-06 from=  5.00000e-09 to=  1.10002e-07
power_avg_uw        =  6.62790e+00


Total analysis time (seconds) = 0.538492

Total elapsed time (seconds) = 0.620 

Total DRAM available = 16384.000 MB.
DRAM currently available =  180.938 MB.
Maximum ngspice program size =   12.562 MB.
Current ngspice program size =   11.781 MB.

