
Note: No compatibility mode selected!


Circuit: NAND2 seed characterization sample 4212019

Doing analysis at TEMP = 27.091800 and TNOM = 27.000000

Using SPARSE 1.3 as Direct Linear Solver

Initial Transient Solution
--------------------------

Node                                   Voltage
----                                   -------
vdd                                    1.96409
in                                           0
out                                    1.96409
nmid                                 0.0117355
vin#branch                                   0
vdd#branch                        -2.00791e-12

 Reference value :  4.66499e-08
 Reference value :  1.07479e-07
No. of Data Rows : 60041

  Measurements for Transient Analysis

tphl                =  3.65053e-10 targ=  2.39150e-09 trig=  2.02645e-09
tplh                =  1.51722e-10 targ=  2.22311e-08 trig=  2.20793e-08
i_vdd_avg           =  -5.89084e-06 from=  5.00000e-09 to=  1.10001e-07
power_avg_uw        =  1.15701e+01


Total analysis time (seconds) = 0.474907

Total elapsed time (seconds) = 0.545 

Total DRAM available = 16384.000 MB.
DRAM currently available =  234.875 MB.
Maximum ngspice program size =   12.562 MB.
Current ngspice program size =   11.656 MB.

