
Note: No compatibility mode selected!


Circuit: NOR2 seed characterization sample 6200052

Doing analysis at TEMP = 90.232100 and TNOM = 27.000000

Using SPARSE 1.3 as Direct Linear Solver

Initial Transient Solution
--------------------------

Node                                   Voltage
----                                   -------
vdd                                    1.89281
in                                           0
out                                    1.89281
pmid                                   1.89281
vin#branch                                   0
vdd#branch                        -5.17889e-10

 Reference value :  3.57948e-08
 Reference value :  9.45539e-08
No. of Data Rows : 60041

  Measurements for Transient Analysis

tphl                =  9.82436e-11 targ=  2.18868e-09 trig=  2.09044e-09
tplh                =  3.18269e-10 targ=  2.25896e-08 trig=  2.22713e-08
i_vdd_avg           =  -2.69877e-06 from=  5.00000e-09 to=  1.10001e-07
power_avg_uw        =  5.10826e+00


Total analysis time (seconds) = 0.512051

Total elapsed time (seconds) = 0.600 

Total DRAM available = 16384.000 MB.
DRAM currently available =  116.453 MB.
Maximum ngspice program size =   12.734 MB.
Current ngspice program size =   11.906 MB.

