
Note: No compatibility mode selected!


Circuit: NAND2 seed characterization sample 4202034

Doing analysis at TEMP = 23.706300 and TNOM = 27.000000

Using SPARSE 1.3 as Direct Linear Solver

Initial Transient Solution
--------------------------

Node                                   Voltage
----                                   -------
vdd                                    1.74148
in                                           0
out                                    1.74148
nmid                                 0.0489198
vin#branch                                   0
vdd#branch                        -2.36616e-12

 Reference value :  4.22070e-08
 Reference value :  9.86931e-08
No. of Data Rows : 60044

  Measurements for Transient Analysis

tphl                =  5.29039e-10 targ=  2.75310e-09 trig=  2.22406e-09
tplh                =  2.28110e-10 targ=  2.29003e-08 trig=  2.26722e-08
i_vdd_avg           =  -4.39535e-06 from=  5.00000e-09 to=  1.10001e-07
power_avg_uw        =  7.65442e+00


Total analysis time (seconds) = 0.497215

Total elapsed time (seconds) = 0.575 

Total DRAM available = 16384.000 MB.
DRAM currently available =  111.000 MB.
Maximum ngspice program size =   12.562 MB.
Current ngspice program size =   11.906 MB.

