
Note: No compatibility mode selected!


Circuit: XOR2 seed characterization sample 4202014

Doing analysis at TEMP = 88.539600 and TNOM = 27.000000

Using SPARSE 1.3 as Direct Linear Solver

Initial Transient Solution
--------------------------

Node                                   Voltage
----                                   -------
vdd                                    1.93071
in                                           0
b                                      1.93071
abar                                   1.93071
bbar                               5.58295e-08
out                                    1.93071
vb#branch                                    0
vin#branch                         2.77297e-10
vdd#branch                         -4.9529e-10

 Reference value :  2.24429e-08
 Reference value :  5.33150e-08
 Reference value :  8.47370e-08
No. of Data Rows : 60044

  Measurements for Transient Analysis

tphl                =  2.23215e-10 targ=  2.24419e-09 trig=  2.02098e-09
tplh                =  2.19267e-10 targ=  2.22822e-08 trig=  2.20629e-08
i_vdd_avg           =  -2.85455e-06 from=  5.00000e-09 to=  1.10001e-07
power_avg_uw        =  5.51131e+00


Total analysis time (seconds) = 0.900076

Total elapsed time (seconds) = 0.979 

Total DRAM available = 16384.000 MB.
DRAM currently available =  140.172 MB.
Maximum ngspice program size =   12.578 MB.
Current ngspice program size =   12.188 MB.

