
Note: No compatibility mode selected!


Circuit: INV seed characterization sample 4202004

Doing analysis at TEMP = -17.189900 and TNOM = 27.000000

Using SPARSE 1.3 as Direct Linear Solver

Initial Transient Solution
--------------------------

Node                                   Voltage
----                                   -------
vdd                                    1.85373
in                                           0
out                                    1.85373
vin#branch                                   0
vdd#branch                        -1.98153e-12

 Reference value :  7.41773e-08
No. of Data Rows : 60047

  Measurements for Transient Analysis

tphl                =  1.25407e-10 targ=  2.34399e-09 trig=  2.21858e-09
tplh                =  1.38765e-10 targ=  2.27945e-08 trig=  2.26557e-08
i_vdd_avg           =  -1.07385e-06 from=  5.00000e-09 to=  1.10001e-07
power_avg_uw        =  1.99063e+00


Total analysis time (seconds) = 0.290462

Total elapsed time (seconds) = 0.359 

Total DRAM available = 16384.000 MB.
DRAM currently available =  137.531 MB.
Maximum ngspice program size =   12.562 MB.
Current ngspice program size =   11.688 MB.

