
Note: No compatibility mode selected!


Circuit: INV seed characterization sample 4202020

Doing analysis at TEMP = 66.482100 and TNOM = 27.000000

Using SPARSE 1.3 as Direct Linear Solver

Initial Transient Solution
--------------------------

Node                                   Voltage
----                                   -------
vdd                                     1.8399
in                                           0
out                                     1.8399
vin#branch                                   0
vdd#branch                        -2.33189e-10

 Reference value :  6.55122e-08
No. of Data Rows : 60041

  Measurements for Transient Analysis

tphl                =  5.17153e-11 targ=  2.10002e-09 trig=  2.04830e-09
tplh                =  6.01979e-11 targ=  2.22051e-08 trig=  2.21449e-08
i_vdd_avg           =  -1.69343e-06 from=  5.00000e-09 to=  1.10000e-07
power_avg_uw        =  3.11574e+00


Total analysis time (seconds) = 0.314545

Total elapsed time (seconds) = 0.391 

Total DRAM available = 16384.000 MB.
DRAM currently available =  133.250 MB.
Maximum ngspice program size =   12.625 MB.
Current ngspice program size =   11.969 MB.

