
Note: No compatibility mode selected!


Circuit: NOR2 seed characterization sample 4202010

Doing analysis at TEMP = 95.683900 and TNOM = 27.000000

Using SPARSE 1.3 as Direct Linear Solver

Initial Transient Solution
--------------------------

Node                                   Voltage
----                                   -------
vdd                                    1.74926
in                                           0
out                                    1.74926
pmid                                   1.74926
vin#branch                                   0
vdd#branch                        -1.18364e-09

 Reference value :  4.45229e-08
 Reference value :  1.04007e-07
No. of Data Rows : 60044

  Measurements for Transient Analysis

tphl                =  5.57454e-11 targ=  2.22271e-09 trig=  2.16697e-09
tplh                =  1.78016e-10 targ=  2.26789e-08 trig=  2.25009e-08
i_vdd_avg           =  -1.52348e-06 from=  5.00000e-09 to=  1.10001e-07
power_avg_uw        =  2.66496e+00


Total analysis time (seconds) = 0.487195

Total elapsed time (seconds) = 0.560 

Total DRAM available = 16384.000 MB.
DRAM currently available =  139.531 MB.
Maximum ngspice program size =   12.562 MB.
Current ngspice program size =   11.844 MB.

