
Note: No compatibility mode selected!


Circuit: NAND2 seed characterization sample 4202009

Doing analysis at TEMP = 10.364800 and TNOM = 27.000000

Using SPARSE 1.3 as Direct Linear Solver

Initial Transient Solution
--------------------------

Node                                   Voltage
----                                   -------
vdd                                    1.84789
in                                           0
out                                    1.84789
nmid                                 0.0394555
vin#branch                                   0
vdd#branch                        -2.03262e-12

 Reference value :  4.58080e-08
 Reference value :  1.06021e-07
No. of Data Rows : 60047

  Measurements for Transient Analysis

tphl                =  5.46877e-10 targ=  2.58740e-09 trig=  2.04052e-09
tplh                =  2.06802e-10 targ=  2.23284e-08 trig=  2.21216e-08
i_vdd_avg           =  -3.02289e-06 from=  5.00000e-09 to=  1.10001e-07
power_avg_uw        =  5.58597e+00


Total analysis time (seconds) = 0.478162

Total elapsed time (seconds) = 0.551 

Total DRAM available = 16384.000 MB.
DRAM currently available =  124.922 MB.
Maximum ngspice program size =   12.562 MB.
Current ngspice program size =   11.688 MB.

