
Note: No compatibility mode selected!


Circuit: INV seed characterization sample 4202037

Doing analysis at TEMP = 14.331200 and TNOM = 27.000000

Using SPARSE 1.3 as Direct Linear Solver

Initial Transient Solution
--------------------------

Node                                   Voltage
----                                   -------
vdd                                    1.65271
in                                           0
out                                    1.65271
vin#branch                                   0
vdd#branch                        -2.62291e-12

 Reference value :  6.79885e-08
No. of Data Rows : 60044

  Measurements for Transient Analysis

tphl                =  8.21236e-11 targ=  2.10200e-09 trig=  2.01988e-09
tplh                =  1.19785e-10 targ=  2.21794e-08 trig=  2.20596e-08
i_vdd_avg           =  -6.46106e-07 from=  5.00000e-09 to=  1.10001e-07
power_avg_uw        =  1.06783e+00


Total analysis time (seconds) = 0.304195

Total elapsed time (seconds) = 0.380 

Total DRAM available = 16384.000 MB.
DRAM currently available =  126.688 MB.
Maximum ngspice program size =   12.562 MB.
Current ngspice program size =   11.688 MB.

