
Note: No compatibility mode selected!


Circuit: XOR2 seed characterization sample 4202022

Doing analysis at TEMP = 63.495700 and TNOM = 27.000000

Using SPARSE 1.3 as Direct Linear Solver

Initial Transient Solution
--------------------------

Node                                   Voltage
----                                   -------
vdd                                    1.70681
in                                           0
b                                      1.70681
abar                                   1.70681
bbar                               1.36986e-08
out                                    1.70681
vb#branch                                    0
vin#branch                         7.33784e-11
vdd#branch                        -1.36236e-10

 Reference value :  2.56458e-08
 Reference value :  5.93734e-08
 Reference value :  9.22254e-08
No. of Data Rows : 60044

  Measurements for Transient Analysis

tphl                =  2.74812e-10 targ=  2.52000e-09 trig=  2.24519e-09
tplh                =  2.68189e-10 targ=  2.30038e-08 trig=  2.27356e-08
i_vdd_avg           =  -2.12418e-06 from=  5.00000e-09 to=  1.10002e-07
power_avg_uw        =  3.62557e+00


Total analysis time (seconds) = 0.86949

Total elapsed time (seconds) = 0.945 

Total DRAM available = 16384.000 MB.
DRAM currently available =  158.422 MB.
Maximum ngspice program size =   12.578 MB.
Current ngspice program size =   11.594 MB.

