
Note: No compatibility mode selected!


Circuit: NAND2 seed characterization sample 4202025

Doing analysis at TEMP = -10.809400 and TNOM = 27.000000

Using SPARSE 1.3 as Direct Linear Solver

Initial Transient Solution
--------------------------

Node                                   Voltage
----                                   -------
vdd                                    1.68947
in                                           0
out                                    1.68947
nmid                                 0.0359772
vin#branch                                   0
vdd#branch                        -1.86387e-12

 Reference value :  3.91355e-08
 Reference value :  9.21832e-08
No. of Data Rows : 60044

  Measurements for Transient Analysis

tphl                =  2.28634e-10 targ=  2.46675e-09 trig=  2.23811e-09
tplh                =  1.45769e-10 targ=  2.28601e-08 trig=  2.27143e-08
i_vdd_avg           =  -3.30304e-06 from=  5.00000e-09 to=  1.10001e-07
power_avg_uw        =  5.58039e+00


Total analysis time (seconds) = 0.542332

Total elapsed time (seconds) = 0.623 

Total DRAM available = 16384.000 MB.
DRAM currently available =  130.156 MB.
Maximum ngspice program size =   12.641 MB.
Current ngspice program size =   11.906 MB.

