
Note: No compatibility mode selected!


Circuit: NOR2 seed characterization sample 4202042

Doing analysis at TEMP = 69.497100 and TNOM = 27.000000

Using SPARSE 1.3 as Direct Linear Solver

Initial Transient Solution
--------------------------

Node                                   Voltage
----                                   -------
vdd                                    1.77686
in                                           0
out                                    1.77686
pmid                                   1.77686
vin#branch                                   0
vdd#branch                        -3.98541e-10

 Reference value :  4.36199e-08
 Reference value :  1.03253e-07
No. of Data Rows : 60041

  Measurements for Transient Analysis

tphl                =  1.20686e-10 targ=  2.34911e-09 trig=  2.22843e-09
tplh                =  4.76940e-10 targ=  2.31622e-08 trig=  2.26853e-08
i_vdd_avg           =  -4.45985e-06 from=  5.00000e-09 to=  1.10001e-07
power_avg_uw        =  7.92454e+00


Total analysis time (seconds) = 0.486717

Total elapsed time (seconds) = 0.562 

Total DRAM available = 16384.000 MB.
DRAM currently available =  191.844 MB.
Maximum ngspice program size =   12.562 MB.
Current ngspice program size =   11.750 MB.

