
Note: No compatibility mode selected!


Circuit: XOR2 seed characterization sample 4202006

Doing analysis at TEMP = 90.152800 and TNOM = 27.000000

Using SPARSE 1.3 as Direct Linear Solver

Initial Transient Solution
--------------------------

Node                                   Voltage
----                                   -------
vdd                                    1.86749
in                                           0
b                                      1.86749
abar                                   1.86749
bbar                               5.92868e-08
out                                    1.86749
vb#branch                                    0
vin#branch                         1.43987e-10
vdd#branch                        -2.78382e-10

 Reference value :  2.35436e-08
 Reference value :  5.69103e-08
 Reference value :  9.22343e-08
No. of Data Rows : 60047

  Measurements for Transient Analysis

tphl                =  7.40480e-10 targ=  2.88913e-09 trig=  2.14865e-09
tplh                =  1.04630e-09 targ=  2.34923e-08 trig=  2.24460e-08
i_vdd_avg           =  -4.43855e-06 from=  5.00000e-09 to=  1.10002e-07
power_avg_uw        =  8.28896e+00


Total analysis time (seconds) = 0.842212

Total elapsed time (seconds) = 0.922 

Total DRAM available = 16384.000 MB.
DRAM currently available =  138.953 MB.
Maximum ngspice program size =   12.578 MB.
Current ngspice program size =   11.906 MB.

