
Note: No compatibility mode selected!


Circuit: INV seed characterization sample 4202036

Doing analysis at TEMP = 71.376900 and TNOM = 27.000000

Using SPARSE 1.3 as Direct Linear Solver

Initial Transient Solution
--------------------------

Node                                   Voltage
----                                   -------
vdd                                    1.62889
in                                           0
out                                    1.62889
vin#branch                                   0
vdd#branch                        -2.52375e-10

 Reference value :  6.61765e-08
No. of Data Rows : 60044

  Measurements for Transient Analysis

tphl                =  7.35087e-11 targ=  2.23839e-09 trig=  2.16488e-09
tplh                =  8.96864e-11 targ=  2.25843e-08 trig=  2.24947e-08
i_vdd_avg           =  -1.20469e-06 from=  5.00000e-09 to=  1.10001e-07
power_avg_uw        =  1.96231e+00


Total analysis time (seconds) = 0.323004

Total elapsed time (seconds) = 0.399 

Total DRAM available = 16384.000 MB.
DRAM currently available =   90.453 MB.
Maximum ngspice program size =   12.594 MB.
Current ngspice program size =   12.281 MB.

