
Note: No compatibility mode selected!


Circuit: INV seed characterization sample 4202047

Doing analysis at TEMP = 4.804390 and TNOM = 27.000000

Using SPARSE 1.3 as Direct Linear Solver

Initial Transient Solution
--------------------------

Node                                   Voltage
----                                   -------
vdd                                    1.71098
in                                           0
out                                    1.71098
vin#branch                                   0
vdd#branch                        -4.05818e-12

 Reference value :  7.26918e-08
No. of Data Rows : 60044

  Measurements for Transient Analysis

tphl                =  1.18239e-10 targ=  2.36645e-09 trig=  2.24821e-09
tplh                =  1.48577e-10 targ=  2.28932e-08 trig=  2.27446e-08
i_vdd_avg           =  -1.80192e-06 from=  5.00000e-09 to=  1.10002e-07
power_avg_uw        =  3.08304e+00


Total analysis time (seconds) = 0.293767

Total elapsed time (seconds) = 0.365 

Total DRAM available = 16384.000 MB.
DRAM currently available =  244.000 MB.
Maximum ngspice program size =   12.594 MB.
Current ngspice program size =   11.656 MB.

