
Note: No compatibility mode selected!


Circuit: INV seed characterization sample 4202044

Doing analysis at TEMP = 80.279400 and TNOM = 27.000000

Using SPARSE 1.3 as Direct Linear Solver

Initial Transient Solution
--------------------------

Node                                   Voltage
----                                   -------
vdd                                    1.82603
in                                           0
out                                    1.82603
vin#branch                                   0
vdd#branch                        -6.03449e-11

 Reference value :  6.88754e-08
No. of Data Rows : 60044

  Measurements for Transient Analysis

tphl                =  4.97694e-10 targ=  2.55581e-09 trig=  2.05811e-09
tplh                =  5.56869e-10 targ=  2.27312e-08 trig=  2.21743e-08
i_vdd_avg           =  -3.22955e-06 from=  5.00000e-09 to=  1.10001e-07
power_avg_uw        =  5.89726e+00


Total analysis time (seconds) = 0.305088

Total elapsed time (seconds) = 0.380 

Total DRAM available = 16384.000 MB.
DRAM currently available =  212.438 MB.
Maximum ngspice program size =   12.625 MB.
Current ngspice program size =   11.688 MB.

