
Note: No compatibility mode selected!


Circuit: INV seed characterization sample 4202001

Doing analysis at TEMP = 77.960400 and TNOM = 27.000000

Using SPARSE 1.3 as Direct Linear Solver

Initial Transient Solution
--------------------------

Node                                   Voltage
----                                   -------
vdd                                    1.69882
in                                           0
out                                    1.69882
vin#branch                                   0
vdd#branch                        -1.78892e-10

 Reference value :  7.22475e-08
No. of Data Rows : 60047

  Measurements for Transient Analysis

tphl                =  2.78366e-11 targ=  2.03558e-09 trig=  2.00774e-09
tplh                =  4.31047e-11 targ=  2.20663e-08 trig=  2.20232e-08
i_vdd_avg           =  -5.23358e-07 from=  5.00000e-09 to=  1.10002e-07
power_avg_uw        =  8.89091e-01


Total analysis time (seconds) = 0.29574

Total elapsed time (seconds) = 0.366 

Total DRAM available = 16384.000 MB.
DRAM currently available =  137.531 MB.
Maximum ngspice program size =   12.562 MB.
Current ngspice program size =   11.656 MB.

