
Note: No compatibility mode selected!


Circuit: XOR2 seed characterization sample 4202030

Doing analysis at TEMP = 73.362700 and TNOM = 27.000000

Using SPARSE 1.3 as Direct Linear Solver

Initial Transient Solution
--------------------------

Node                                   Voltage
----                                   -------
vdd                                    1.94246
in                                           0
b                                      1.94246
abar                                   1.94246
bbar                                 2.404e-08
out                                    1.94246
vb#branch                                    0
vin#branch                         1.11259e-10
vdd#branch                        -2.02798e-10

 Reference value :  2.37680e-08
 Reference value :  5.62305e-08
 Reference value :  9.03905e-08
No. of Data Rows : 60047

  Measurements for Transient Analysis

tphl                =  4.66849e-10 targ=  2.63859e-09 trig=  2.17174e-09
tplh                =  4.70246e-10 targ=  2.29855e-08 trig=  2.25152e-08
i_vdd_avg           =  -5.16868e-06 from=  5.00000e-09 to=  1.10002e-07
power_avg_uw        =  1.00400e+01


Total analysis time (seconds) = 0.859934

Total elapsed time (seconds) = 0.937 

Total DRAM available = 16384.000 MB.
DRAM currently available =  125.984 MB.
Maximum ngspice program size =   12.562 MB.
Current ngspice program size =   11.625 MB.

