
Note: No compatibility mode selected!


Circuit: INV seed characterization sample 4202035

Doing analysis at TEMP = 99.134100 and TNOM = 27.000000

Using SPARSE 1.3 as Direct Linear Solver

Initial Transient Solution
--------------------------

Node                                   Voltage
----                                   -------
vdd                                     1.7703
in                                           0
out                                     1.7703
vin#branch                                   0
vdd#branch                        -4.47079e-10

 Reference value :  6.74806e-08
No. of Data Rows : 60041

  Measurements for Transient Analysis

tphl                =  2.36345e-10 targ=  2.30376e-09 trig=  2.06741e-09
tplh                =  3.49478e-10 targ=  2.25517e-08 trig=  2.22022e-08
i_vdd_avg           =  -4.69397e-06 from=  5.00000e-09 to=  1.10001e-07
power_avg_uw        =  8.30974e+00


Total analysis time (seconds) = 0.322041

Total elapsed time (seconds) = 0.397 

Total DRAM available = 16384.000 MB.
DRAM currently available =   86.031 MB.
Maximum ngspice program size =   12.562 MB.
Current ngspice program size =   11.844 MB.

