
Note: No compatibility mode selected!


Circuit: NOR2 seed characterization sample 4202013

Doing analysis at TEMP = -9.200970 and TNOM = 27.000000

Using SPARSE 1.3 as Direct Linear Solver

Initial Transient Solution
--------------------------

Node                                   Voltage
----                                   -------
vdd                                    1.68792
in                                           0
out                                    1.68792
pmid                                   1.68792
vin#branch                                   0
vdd#branch                        -4.39573e-12

 Reference value :  3.92722e-08
 Reference value :  9.19256e-08
No. of Data Rows : 60041

  Measurements for Transient Analysis

tphl                =  2.99100e-11 targ=  2.23620e-09 trig=  2.20629e-09
tplh                =  1.70330e-10 targ=  2.27892e-08 trig=  2.26189e-08
i_vdd_avg           =  -6.55916e-07 from=  5.00000e-09 to=  1.10000e-07
power_avg_uw        =  1.10713e+00


Total analysis time (seconds) = 0.553175

Total elapsed time (seconds) = 0.630 

Total DRAM available = 16384.000 MB.
DRAM currently available =  137.438 MB.
Maximum ngspice program size =   12.562 MB.
Current ngspice program size =   11.812 MB.

